
*** ChampSim Multicore Out-of-Order Simulator ***

Warmup Instructions: 10000000
Simulation Instructions: 100000000
Number of CPUs: 1
Off-chip DRAM Size: 4 GiB Channels: 1 Width: 64-bit Data Rate: 3200 MT/s

VirtualMemory physical capacity: 8588881920 num_ppages: 2096895
VirtualMemory page size: 4096 log2_page_size: 12

CPU 0 runs /datasets/cs240c-wi22-a00-public/data/Assignment2/milc_409B.trace.xz
CPU 0 Bimodal branch predictor
Basic BTB sets: 1024 ways: 8 indirect buffer size: 4096 RAS size: 64
Initialize Hawkeye state
Initialize SRRIP state
Heartbeat CPU 0 instructions: 10000002 cycles: 3019985 heartbeat IPC: 3.31128 cumulative IPC: 3.31128 (Simulation time: 0 hr 0 min 45 sec) 

Warmup complete CPU 0 instructions: 10000002 cycles: 3019985 (Simulation time: 0 hr 0 min 45 sec) 

Heartbeat CPU 0 instructions: 20000002 cycles: 19752353 heartbeat IPC: 0.597644 cumulative IPC: 0.597644 (Simulation time: 0 hr 2 min 27 sec) 
Heartbeat CPU 0 instructions: 30000001 cycles: 36276944 heartbeat IPC: 0.605159 cumulative IPC: 0.601378 (Simulation time: 0 hr 4 min 5 sec) 
Heartbeat CPU 0 instructions: 40000004 cycles: 52858289 heartbeat IPC: 0.603088 cumulative IPC: 0.601947 (Simulation time: 0 hr 5 min 46 sec) 
Heartbeat CPU 0 instructions: 50000000 cycles: 69313389 heartbeat IPC: 0.607714 cumulative IPC: 0.603378 (Simulation time: 0 hr 7 min 26 sec) 
Heartbeat CPU 0 instructions: 60000004 cycles: 91484402 heartbeat IPC: 0.45104 cumulative IPC: 0.565199 (Simulation time: 0 hr 9 min 43 sec) 
Heartbeat CPU 0 instructions: 70000003 cycles: 107107215 heartbeat IPC: 0.64009 cumulative IPC: 0.57644 (Simulation time: 0 hr 11 min 17 sec) 
Heartbeat CPU 0 instructions: 80000002 cycles: 123164813 heartbeat IPC: 0.622758 cumulative IPC: 0.58263 (Simulation time: 0 hr 12 min 47 sec) 
Heartbeat CPU 0 instructions: 90000001 cycles: 139155589 heartbeat IPC: 0.62536 cumulative IPC: 0.587649 (Simulation time: 0 hr 14 min 20 sec) 
Heartbeat CPU 0 instructions: 100000001 cycles: 155157378 heartbeat IPC: 0.62493 cumulative IPC: 0.591571 (Simulation time: 0 hr 15 min 54 sec) 
Heartbeat CPU 0 instructions: 110000003 cycles: 175507289 heartbeat IPC: 0.491403 cumulative IPC: 0.579753 (Simulation time: 0 hr 18 min 36 sec) 
Finished CPU 0 instructions: 100000001 cycles: 172487304 cumulative IPC: 0.579753 (Simulation time: 0 hr 18 min 36 sec) 

ChampSim completed all CPUs

Region of Interest Statistics

CPU 0 cumulative IPC: 0.579753 instructions: 100000001 cycles: 172487304
cpu0_DTLB TOTAL     ACCESS:   14830951  HIT:   14655785  MISS:     175166
cpu0_DTLB LOAD      ACCESS:    7379868  HIT:    7206843  MISS:     173025
cpu0_DTLB RFO       ACCESS:    7451083  HIT:    7448942  MISS:       2141
cpu0_DTLB PREFETCH  ACCESS:          0  HIT:          0  MISS:          0
cpu0_DTLB WRITEBACK ACCESS:          0  HIT:          0  MISS:          0
cpu0_DTLB TRANSLATION ACCESS:          0  HIT:          0  MISS:          0
cpu0_DTLB PREFETCH  REQUESTED:          0  ISSUED:          0  USEFUL:          0  USELESS:          0
cpu0_DTLB AVERAGE MISS LATENCY: 105.471 cycles
cpu0_ITLB TOTAL     ACCESS:    2819233  HIT:    2819229  MISS:          4
cpu0_ITLB LOAD      ACCESS:    2819233  HIT:    2819229  MISS:          4
cpu0_ITLB RFO       ACCESS:          0  HIT:          0  MISS:          0
cpu0_ITLB PREFETCH  ACCESS:          0  HIT:          0  MISS:          0
cpu0_ITLB WRITEBACK ACCESS:          0  HIT:          0  MISS:          0
cpu0_ITLB TRANSLATION ACCESS:          0  HIT:          0  MISS:          0
cpu0_ITLB PREFETCH  REQUESTED:          0  ISSUED:          0  USEFUL:          0  USELESS:          0
cpu0_ITLB AVERAGE MISS LATENCY: 265.5 cycles
cpu0_L1I TOTAL     ACCESS:    7048930  HIT:    7048879  MISS:         51
cpu0_L1I LOAD      ACCESS:    7048930  HIT:    7048879  MISS:         51
cpu0_L1I RFO       ACCESS:          0  HIT:          0  MISS:          0
cpu0_L1I PREFETCH  ACCESS:          0  HIT:          0  MISS:          0
cpu0_L1I WRITEBACK ACCESS:          0  HIT:          0  MISS:          0
cpu0_L1I TRANSLATION ACCESS:          0  HIT:          0  MISS:          0
cpu0_L1I PREFETCH  REQUESTED:          0  ISSUED:          0  USEFUL:          0  USELESS:          0
cpu0_L1I AVERAGE MISS LATENCY: 194.137 cycles
cpu0_STLB TOTAL     ACCESS:     175170  HIT:          0  MISS:     175170
cpu0_STLB LOAD      ACCESS:     173029  HIT:          0  MISS:     173029
cpu0_STLB RFO       ACCESS:       2141  HIT:          0  MISS:       2141
cpu0_STLB PREFETCH  ACCESS:          0  HIT:          0  MISS:          0
cpu0_STLB WRITEBACK ACCESS:          0  HIT:          0  MISS:          0
cpu0_STLB TRANSLATION ACCESS:          0  HIT:          0  MISS:          0
cpu0_STLB PREFETCH  REQUESTED:          0  ISSUED:          0  USEFUL:          0  USELESS:          0
cpu0_STLB AVERAGE MISS LATENCY: 96.4749 cycles
cpu0_L1D TOTAL     ACCESS:   28476285  HIT:   26658797  MISS:    1817488
cpu0_L1D LOAD      ACCESS:    6444452  HIT:    4763862  MISS:    1680590
cpu0_L1D RFO       ACCESS:   21856666  HIT:   21719819  MISS:     136847
cpu0_L1D PREFETCH  ACCESS:          0  HIT:          0  MISS:          0
cpu0_L1D WRITEBACK ACCESS:          0  HIT:          0  MISS:          0
cpu0_L1D TRANSLATION ACCESS:     175167  HIT:     175116  MISS:         51
cpu0_L1D PREFETCH  REQUESTED:          0  ISSUED:          0  USEFUL:          0  USELESS:          0
cpu0_L1D AVERAGE MISS LATENCY: 384.882 cycles
cpu0_L2C TOTAL     ACCESS:    2676936  HIT:     859383  MISS:    1817553
cpu0_L2C LOAD      ACCESS:    1680641  HIT:          0  MISS:    1680641
cpu0_L2C RFO       ACCESS:     136847  HIT:          0  MISS:     136847
cpu0_L2C PREFETCH  ACCESS:          0  HIT:          0  MISS:          0
cpu0_L2C WRITEBACK ACCESS:     859397  HIT:     859383  MISS:         14
cpu0_L2C TRANSLATION ACCESS:         51  HIT:          0  MISS:         51
cpu0_L2C PREFETCH  REQUESTED:          0  ISSUED:          0  USEFUL:          0  USELESS:          0
cpu0_L2C AVERAGE MISS LATENCY: 373.825 cycles
LLC TOTAL     ACCESS:    2673600  HIT:      63753  MISS:    2609847
LLC LOAD      ACCESS:    1680641  HIT:      12932  MISS:    1667709
LLC RFO       ACCESS:     136847  HIT:       7833  MISS:     129014
LLC PREFETCH  ACCESS:          0  HIT:          0  MISS:          0
LLC WRITEBACK ACCESS:     856061  HIT:      42985  MISS:     813076
LLC TRANSLATION ACCESS:         51  HIT:          3  MISS:         48
LLC PREFETCH  REQUESTED:          0  ISSUED:          0  USEFUL:          0  USELESS:          0
LLC AVERAGE MISS LATENCY: 245.715 cycles
OPTgen accesses: 34616
OPTgen hits: 378
OPTgen hit rate: 1.09198


Insertion Distribution: 
	LOAD 0 0 99542 1801132 
	RFO 0 0 34090 235936 
	PREF 0 0 0 0 
	WRITEBACK 0 0 0 951913 
	TRANSLATION 0 0 26 45 
Total Prefetch Downgrades: 0
DIP stats:
h_count: 1002320(0.310214)
s_count: 2228743(0.689786)
total: 3231063
hm_count: 48835
sm_count: 48854

DRAM Statistics
 CHANNEL 0
 RQ ROW_BUFFER_HIT:     244532  ROW_BUFFER_MISS:    1552231
 DBUS AVG_CONGESTED_CYCLE:     3.9699
 WQ ROW_BUFFER_HIT:      49140  ROW_BUFFER_MISS:     788032  FULL:         64


CPU 0 Branch Prediction Accuracy: 99.9987% MPKI: 0.00058 Average ROB Occupancy at Mispredict: 57.0517
Branch type MPKI
BRANCH_DIRECT_JUMP: 0.0001
BRANCH_INDIRECT: 0
BRANCH_CONDITIONAL: 0.00033
BRANCH_DIRECT_CALL: 8e-05
BRANCH_INDIRECT_CALL: 0
BRANCH_RETURN: 7e-05

