
*** ChampSim Multicore Out-of-Order Simulator ***

Warmup Instructions: 10000000
Simulation Instructions: 100000000
Number of CPUs: 1
Off-chip DRAM Size: 4 GiB Channels: 1 Width: 64-bit Data Rate: 3200 MT/s

VirtualMemory physical capacity: 8588881920 num_ppages: 2096895
VirtualMemory page size: 4096 log2_page_size: 12

CPU 0 runs /datasets/cs240c-wi22-a00-public/data/Assignment2/gcc_13B.trace.xz
CPU 0 Bimodal branch predictor
Basic BTB sets: 1024 ways: 8 indirect buffer size: 4096 RAS size: 64
Initialize Hawkeye state
Initialize SRRIP state
Heartbeat CPU 0 instructions: 10000003 cycles: 2971439 heartbeat IPC: 3.36537 cumulative IPC: 3.36537 (Simulation time: 0 hr 0 min 27 sec) 

Warmup complete CPU 0 instructions: 10000003 cycles: 2971439 (Simulation time: 0 hr 0 min 27 sec) 

Heartbeat CPU 0 instructions: 20000003 cycles: 52373514 heartbeat IPC: 0.202421 cumulative IPC: 0.202421 (Simulation time: 0 hr 1 min 47 sec) 
Heartbeat CPU 0 instructions: 30000002 cycles: 107774651 heartbeat IPC: 0.180502 cumulative IPC: 0.190834 (Simulation time: 0 hr 3 min 18 sec) 
Heartbeat CPU 0 instructions: 40000004 cycles: 145744561 heartbeat IPC: 0.263366 cumulative IPC: 0.210124 (Simulation time: 0 hr 4 min 41 sec) 
Heartbeat CPU 0 instructions: 50000002 cycles: 163871289 heartbeat IPC: 0.551671 cumulative IPC: 0.248602 (Simulation time: 0 hr 5 min 12 sec) 
Heartbeat CPU 0 instructions: 60000003 cycles: 181863568 heartbeat IPC: 0.555794 cumulative IPC: 0.279498 (Simulation time: 0 hr 5 min 42 sec) 
Heartbeat CPU 0 instructions: 70000000 cycles: 199527368 heartbeat IPC: 0.566129 cumulative IPC: 0.305257 (Simulation time: 0 hr 6 min 12 sec) 
Heartbeat CPU 0 instructions: 80000002 cycles: 216880051 heartbeat IPC: 0.57628 cumulative IPC: 0.327243 (Simulation time: 0 hr 6 min 40 sec) 
Heartbeat CPU 0 instructions: 90000000 cycles: 234993892 heartbeat IPC: 0.552064 cumulative IPC: 0.344794 (Simulation time: 0 hr 7 min 10 sec) 
Heartbeat CPU 0 instructions: 100000000 cycles: 252740568 heartbeat IPC: 0.563486 cumulative IPC: 0.360333 (Simulation time: 0 hr 7 min 38 sec) 
Heartbeat CPU 0 instructions: 110000002 cycles: 276481568 heartbeat IPC: 0.421212 cumulative IPC: 0.365617 (Simulation time: 0 hr 8 min 13 sec) 
Finished CPU 0 instructions: 100000004 cycles: 273510130 cumulative IPC: 0.365617 (Simulation time: 0 hr 8 min 13 sec) 

ChampSim completed all CPUs

Region of Interest Statistics

CPU 0 cumulative IPC: 0.365617 instructions: 100000004 cycles: 273510130
cpu0_DTLB TOTAL     ACCESS:   19497482  HIT:   19395298  MISS:     102184
cpu0_DTLB LOAD      ACCESS:   14054628  HIT:   13967243  MISS:      87385
cpu0_DTLB RFO       ACCESS:    5442854  HIT:    5428055  MISS:      14799
cpu0_DTLB PREFETCH  ACCESS:          0  HIT:          0  MISS:          0
cpu0_DTLB WRITEBACK ACCESS:          0  HIT:          0  MISS:          0
cpu0_DTLB TRANSLATION ACCESS:          0  HIT:          0  MISS:          0
cpu0_DTLB PREFETCH  REQUESTED:          0  ISSUED:          0  USEFUL:          0  USELESS:          0
cpu0_DTLB AVERAGE MISS LATENCY: 29.9194 cycles
cpu0_ITLB TOTAL     ACCESS:   10353018  HIT:   10352957  MISS:         61
cpu0_ITLB LOAD      ACCESS:   10353018  HIT:   10352957  MISS:         61
cpu0_ITLB RFO       ACCESS:          0  HIT:          0  MISS:          0
cpu0_ITLB PREFETCH  ACCESS:          0  HIT:          0  MISS:          0
cpu0_ITLB WRITEBACK ACCESS:          0  HIT:          0  MISS:          0
cpu0_ITLB TRANSLATION ACCESS:          0  HIT:          0  MISS:          0
cpu0_ITLB PREFETCH  REQUESTED:          0  ISSUED:          0  USEFUL:          0  USELESS:          0
cpu0_ITLB AVERAGE MISS LATENCY: 143.836 cycles
cpu0_L1I TOTAL     ACCESS:    6565304  HIT:    6564933  MISS:        371
cpu0_L1I LOAD      ACCESS:    6565304  HIT:    6564933  MISS:        371
cpu0_L1I RFO       ACCESS:          0  HIT:          0  MISS:          0
cpu0_L1I PREFETCH  ACCESS:          0  HIT:          0  MISS:          0
cpu0_L1I WRITEBACK ACCESS:          0  HIT:          0  MISS:          0
cpu0_L1I TRANSLATION ACCESS:          0  HIT:          0  MISS:          0
cpu0_L1I PREFETCH  REQUESTED:          0  ISSUED:          0  USEFUL:          0  USELESS:          0
cpu0_L1I AVERAGE MISS LATENCY: 172.332 cycles
cpu0_STLB TOTAL     ACCESS:     102245  HIT:      33345  MISS:      68900
cpu0_STLB LOAD      ACCESS:      87446  HIT:      30386  MISS:      57060
cpu0_STLB RFO       ACCESS:      14799  HIT:       2959  MISS:      11840
cpu0_STLB PREFETCH  ACCESS:          0  HIT:          0  MISS:          0
cpu0_STLB WRITEBACK ACCESS:          0  HIT:          0  MISS:          0
cpu0_STLB TRANSLATION ACCESS:          0  HIT:          0  MISS:          0
cpu0_STLB PREFETCH  REQUESTED:          0  ISSUED:          0  USEFUL:          0  USELESS:          0
cpu0_STLB AVERAGE MISS LATENCY: 31.1385 cycles
cpu0_L1D TOTAL     ACCESS:   26292747  HIT:   24748987  MISS:    1543760
cpu0_L1D LOAD      ACCESS:   12803016  HIT:   11536295  MISS:    1266721
cpu0_L1D RFO       ACCESS:   13421021  HIT:   13145054  MISS:     275967
cpu0_L1D PREFETCH  ACCESS:          0  HIT:          0  MISS:          0
cpu0_L1D WRITEBACK ACCESS:          0  HIT:          0  MISS:          0
cpu0_L1D TRANSLATION ACCESS:      68710  HIT:      67638  MISS:       1072
cpu0_L1D PREFETCH  REQUESTED:          0  ISSUED:          0  USEFUL:          0  USELESS:          0
cpu0_L1D AVERAGE MISS LATENCY: 264.802 cycles
cpu0_L2C TOTAL     ACCESS:    1957268  HIT:     462215  MISS:    1495053
cpu0_L2C LOAD      ACCESS:    1267092  HIT:      46448  MISS:    1220644
cpu0_L2C RFO       ACCESS:     275967  HIT:       1818  MISS:     274149
cpu0_L2C PREFETCH  ACCESS:          0  HIT:          0  MISS:          0
cpu0_L2C WRITEBACK ACCESS:     413137  HIT:     413086  MISS:         51
cpu0_L2C TRANSLATION ACCESS:       1072  HIT:        863  MISS:        209
cpu0_L2C PREFETCH  REQUESTED:          0  ISSUED:          0  USEFUL:          0  USELESS:          0
cpu0_L2C AVERAGE MISS LATENCY: 262.079 cycles
LLC TOTAL     ACCESS:    1905850  HIT:     256076  MISS:    1649774
LLC LOAD      ACCESS:    1220644  HIT:     132773  MISS:    1087871
LLC RFO       ACCESS:     274149  HIT:      25467  MISS:     248682
LLC PREFETCH  ACCESS:          0  HIT:          0  MISS:          0
LLC WRITEBACK ACCESS:     410848  HIT:      97727  MISS:     313121
LLC TRANSLATION ACCESS:        209  HIT:        109  MISS:        100
LLC PREFETCH  REQUESTED:          0  ISSUED:          0  USEFUL:          0  USELESS:          0
LLC AVERAGE MISS LATENCY: 218.47 cycles
OPTgen accesses: 30444
OPTgen hits: 1659
OPTgen hit rate: 5.44935


Insertion Distribution: 
	LOAD 38179 0 128943 1192554 
	RFO 48755 0 59603 302396 
	PREF 0 0 0 0 
	WRITEBACK 0 0 0 462985 
	TRANSLATION 7 0 65 69 
Total Prefetch Downgrades: 0
DIP stats:
h_count: 1465972(0.559368)
s_count: 1154791(0.440632)
total: 2620763
hm_count: 35388
sm_count: 35569

DRAM Statistics
 CHANNEL 0
 RQ ROW_BUFFER_HIT:     202297  ROW_BUFFER_MISS:    1134286
 DBUS AVG_CONGESTED_CYCLE:    3.94642
 WQ ROW_BUFFER_HIT:      43696  ROW_BUFFER_MISS:     355498  FULL:       4066


CPU 0 Branch Prediction Accuracy: 87.437% MPKI: 28.6507 Average ROB Occupancy at Mispredict: 19.8949
Branch type MPKI
BRANCH_DIRECT_JUMP: 0.0008
BRANCH_INDIRECT: 0.00403
BRANCH_CONDITIONAL: 28.6428
BRANCH_DIRECT_CALL: 0.00114
BRANCH_INDIRECT_CALL: 0.0008
BRANCH_RETURN: 0.00114

