
*** ChampSim Multicore Out-of-Order Simulator ***

Warmup Instructions: 10000000
Simulation Instructions: 100000000
Number of CPUs: 1
Off-chip DRAM Size: 4 GiB Channels: 1 Width: 64-bit Data Rate: 3200 MT/s

VirtualMemory physical capacity: 8588881920 num_ppages: 2096895
VirtualMemory page size: 4096 log2_page_size: 12

CPU 0 runs /datasets/cs240c-wi22-a00-public/data/Assignment2/GemsFDTD_109B.trace.xz
CPU 0 Bimodal branch predictor
Basic BTB sets: 1024 ways: 8 indirect buffer size: 4096 RAS size: 64
Initialize Hawkeye state
Initialize SRRIP state
Heartbeat CPU 0 instructions: 10000004 cycles: 4294006 heartbeat IPC: 2.32883 cumulative IPC: 2.32883 (Simulation time: 0 hr 0 min 57 sec) 

Warmup complete CPU 0 instructions: 10000004 cycles: 4294006 (Simulation time: 0 hr 0 min 57 sec) 

Heartbeat CPU 0 instructions: 20000000 cycles: 34565390 heartbeat IPC: 0.330345 cumulative IPC: 0.330345 (Simulation time: 0 hr 4 min 15 sec) 
Heartbeat CPU 0 instructions: 30000004 cycles: 55238548 heartbeat IPC: 0.483719 cumulative IPC: 0.392584 (Simulation time: 0 hr 6 min 10 sec) 
Heartbeat CPU 0 instructions: 40000004 cycles: 61807049 heartbeat IPC: 1.52242 cumulative IPC: 0.521621 (Simulation time: 0 hr 6 min 57 sec) 
Heartbeat CPU 0 instructions: 50000002 cycles: 82939410 heartbeat IPC: 0.473208 cumulative IPC: 0.508612 (Simulation time: 0 hr 8 min 55 sec) 
Heartbeat CPU 0 instructions: 60000002 cycles: 123277687 heartbeat IPC: 0.247903 cumulative IPC: 0.420226 (Simulation time: 0 hr 12 min 45 sec) 
Heartbeat CPU 0 instructions: 70000004 cycles: 163070496 heartbeat IPC: 0.251302 cumulative IPC: 0.37789 (Simulation time: 0 hr 16 min 29 sec) 
Heartbeat CPU 0 instructions: 80000004 cycles: 202777017 heartbeat IPC: 0.251848 cumulative IPC: 0.352675 (Simulation time: 0 hr 20 min 18 sec) 
Heartbeat CPU 0 instructions: 90000000 cycles: 242438485 heartbeat IPC: 0.252134 cumulative IPC: 0.33593 (Simulation time: 0 hr 24 min 4 sec) 
Heartbeat CPU 0 instructions: 100000003 cycles: 282170428 heartbeat IPC: 0.251687 cumulative IPC: 0.323885 (Simulation time: 0 hr 27 min 47 sec) 
Heartbeat CPU 0 instructions: 110000004 cycles: 321849909 heartbeat IPC: 0.252019 cumulative IPC: 0.314905 (Simulation time: 0 hr 31 min 29 sec) 
Finished CPU 0 instructions: 100000000 cycles: 317555903 cumulative IPC: 0.314905 (Simulation time: 0 hr 31 min 29 sec) 

ChampSim completed all CPUs

Region of Interest Statistics

CPU 0 cumulative IPC: 0.314905 instructions: 100000000 cycles: 317555903
cpu0_DTLB TOTAL     ACCESS:   26448415  HIT:   26248990  MISS:     199425
cpu0_DTLB LOAD      ACCESS:   21017702  HIT:   20820279  MISS:     197423
cpu0_DTLB RFO       ACCESS:    5430713  HIT:    5428711  MISS:       2002
cpu0_DTLB PREFETCH  ACCESS:          0  HIT:          0  MISS:          0
cpu0_DTLB WRITEBACK ACCESS:          0  HIT:          0  MISS:          0
cpu0_DTLB TRANSLATION ACCESS:          0  HIT:          0  MISS:          0
cpu0_DTLB PREFETCH  REQUESTED:          0  ISSUED:          0  USEFUL:          0  USELESS:          0
cpu0_DTLB AVERAGE MISS LATENCY: 429.983 cycles
cpu0_ITLB TOTAL     ACCESS:    2050890  HIT:    2050872  MISS:         18
cpu0_ITLB LOAD      ACCESS:    2050890  HIT:    2050872  MISS:         18
cpu0_ITLB RFO       ACCESS:          0  HIT:          0  MISS:          0
cpu0_ITLB PREFETCH  ACCESS:          0  HIT:          0  MISS:          0
cpu0_ITLB WRITEBACK ACCESS:          0  HIT:          0  MISS:          0
cpu0_ITLB TRANSLATION ACCESS:          0  HIT:          0  MISS:          0
cpu0_ITLB PREFETCH  REQUESTED:          0  ISSUED:          0  USEFUL:          0  USELESS:          0
cpu0_ITLB AVERAGE MISS LATENCY: 264.944 cycles
cpu0_L1I TOTAL     ACCESS:    1722911  HIT:    1722481  MISS:        430
cpu0_L1I LOAD      ACCESS:    1722911  HIT:    1722481  MISS:        430
cpu0_L1I RFO       ACCESS:          0  HIT:          0  MISS:          0
cpu0_L1I PREFETCH  ACCESS:          0  HIT:          0  MISS:          0
cpu0_L1I WRITEBACK ACCESS:          0  HIT:          0  MISS:          0
cpu0_L1I TRANSLATION ACCESS:          0  HIT:          0  MISS:          0
cpu0_L1I PREFETCH  REQUESTED:          0  ISSUED:          0  USEFUL:          0  USELESS:          0
cpu0_L1I AVERAGE MISS LATENCY: 354.777 cycles
cpu0_STLB TOTAL     ACCESS:     199443  HIT:      33982  MISS:     165461
cpu0_STLB LOAD      ACCESS:     197441  HIT:      32674  MISS:     164767
cpu0_STLB RFO       ACCESS:       2002  HIT:       1308  MISS:        694
cpu0_STLB PREFETCH  ACCESS:          0  HIT:          0  MISS:          0
cpu0_STLB WRITEBACK ACCESS:          0  HIT:          0  MISS:          0
cpu0_STLB TRANSLATION ACCESS:          0  HIT:          0  MISS:          0
cpu0_STLB PREFETCH  REQUESTED:          0  ISSUED:          0  USEFUL:          0  USELESS:          0
cpu0_STLB AVERAGE MISS LATENCY: 507.308 cycles
cpu0_L1D TOTAL     ACCESS:   22874499  HIT:   19644458  MISS:    3230041
cpu0_L1D LOAD      ACCESS:   13775417  HIT:   10675670  MISS:    3099747
cpu0_L1D RFO       ACCESS:    9009493  HIT:    8881881  MISS:     127612
cpu0_L1D PREFETCH  ACCESS:          0  HIT:          0  MISS:          0
cpu0_L1D WRITEBACK ACCESS:          0  HIT:          0  MISS:          0
cpu0_L1D TRANSLATION ACCESS:      89589  HIT:      86907  MISS:       2682
cpu0_L1D PREFETCH  REQUESTED:          0  ISSUED:          0  USEFUL:          0  USELESS:          0
cpu0_L1D AVERAGE MISS LATENCY: 716.898 cycles
cpu0_L2C TOTAL     ACCESS:    4595303  HIT:    1423487  MISS:    3171816
cpu0_L2C LOAD      ACCESS:    3100177  HIT:      41134  MISS:    3059043
cpu0_L2C RFO       ACCESS:     127612  HIT:      15132  MISS:     112480
cpu0_L2C PREFETCH  ACCESS:          0  HIT:          0  MISS:          0
cpu0_L2C WRITEBACK ACCESS:    1364832  HIT:    1364736  MISS:         96
cpu0_L2C TRANSLATION ACCESS:       2682  HIT:       2485  MISS:        197
cpu0_L2C PREFETCH  REQUESTED:          0  ISSUED:          0  USEFUL:          0  USELESS:          0
cpu0_L2C AVERAGE MISS LATENCY: 718.888 cycles
LLC TOTAL     ACCESS:    4523007  HIT:    1066056  MISS:    3456951
LLC LOAD      ACCESS:    3059037  HIT:     703296  MISS:    2355741
LLC RFO       ACCESS:     112480  HIT:      95018  MISS:      17462
LLC PREFETCH  ACCESS:          0  HIT:          0  MISS:          0
LLC WRITEBACK ACCESS:    1351293  HIT:     267638  MISS:    1083655
LLC TRANSLATION ACCESS:        197  HIT:        104  MISS:         93
LLC PREFETCH  REQUESTED:          0  ISSUED:          0  USEFUL:          0  USELESS:          0
LLC AVERAGE MISS LATENCY: 640.316 cycles
OPTgen accesses: 53417
OPTgen hits: 9516
OPTgen hit rate: 17.8146


Insertion Distribution: 
	LOAD 590234 0 230000 1759345 
	RFO 4364 0 8650 4450 
	PREF 0 0 0 0 
	WRITEBACK 0 0 0 1194699 
	TRANSLATION 2 0 68 42 
Total Prefetch Downgrades: 0
DIP stats:
h_count: 4294531(0.87557)
s_count: 610307(0.12443)
total: 4904838
hm_count: 58983
sm_count: 61599

DRAM Statistics
 CHANNEL 0
 RQ ROW_BUFFER_HIT:      43266  ROW_BUFFER_MISS:    2330007
 DBUS AVG_CONGESTED_CYCLE:    3.99655
 WQ ROW_BUFFER_HIT:      22194  ROW_BUFFER_MISS:    1233630  FULL:      57978


CPU 0 Branch Prediction Accuracy: 98.929% MPKI: 0.55515 Average ROB Occupancy at Mispredict: 266.108
Branch type MPKI
BRANCH_DIRECT_JUMP: 0.00045
BRANCH_INDIRECT: 1e-05
BRANCH_CONDITIONAL: 0.5534
BRANCH_DIRECT_CALL: 0.00065
BRANCH_INDIRECT_CALL: 0
BRANCH_RETURN: 0.00064

