
*** ChampSim Multicore Out-of-Order Simulator ***

Warmup Instructions: 10000000
Simulation Instructions: 100000000
Number of CPUs: 1
Off-chip DRAM Size: 4 GiB Channels: 1 Width: 64-bit Data Rate: 3200 MT/s

VirtualMemory physical capacity: 8588881920 num_ppages: 2096895
VirtualMemory page size: 4096 log2_page_size: 12

CPU 0 runs /datasets/cs240c-wi22-a00-public/data/Assignment2/leslie3d_94B.trace.xz
CPU 0 Bimodal branch predictor
Basic BTB sets: 1024 ways: 8 indirect buffer size: 4096 RAS size: 64
Initialize Hawkeye state
Initialize SRRIP state
Heartbeat CPU 0 instructions: 10000002 cycles: 4308725 heartbeat IPC: 2.32087 cumulative IPC: 2.32087 (Simulation time: 0 hr 0 min 58 sec) 

Warmup complete CPU 0 instructions: 10000002 cycles: 4308725 (Simulation time: 0 hr 0 min 58 sec) 

Heartbeat CPU 0 instructions: 20000000 cycles: 35148850 heartbeat IPC: 0.324253 cumulative IPC: 0.324253 (Simulation time: 0 hr 3 min 40 sec) 
Heartbeat CPU 0 instructions: 30000001 cycles: 88326965 heartbeat IPC: 0.188047 cumulative IPC: 0.238044 (Simulation time: 0 hr 8 min 1 sec) 
Heartbeat CPU 0 instructions: 40000001 cycles: 98544090 heartbeat IPC: 0.978749 cumulative IPC: 0.318352 (Simulation time: 0 hr 9 min 28 sec) 
Heartbeat CPU 0 instructions: 50000002 cycles: 108811648 heartbeat IPC: 0.973942 cumulative IPC: 0.382764 (Simulation time: 0 hr 10 min 56 sec) 
Heartbeat CPU 0 instructions: 60000003 cycles: 119006505 heartbeat IPC: 0.980887 cumulative IPC: 0.435928 (Simulation time: 0 hr 12 min 22 sec) 
Heartbeat CPU 0 instructions: 70000001 cycles: 129197077 heartbeat IPC: 0.981299 cumulative IPC: 0.480429 (Simulation time: 0 hr 13 min 50 sec) 
Heartbeat CPU 0 instructions: 80000000 cycles: 142937748 heartbeat IPC: 0.727766 cumulative IPC: 0.504945 (Simulation time: 0 hr 15 min 39 sec) 
Heartbeat CPU 0 instructions: 90000004 cycles: 176611318 heartbeat IPC: 0.296969 cumulative IPC: 0.464299 (Simulation time: 0 hr 18 min 51 sec) 
Heartbeat CPU 0 instructions: 100000001 cycles: 232135787 heartbeat IPC: 0.180101 cumulative IPC: 0.395036 (Simulation time: 0 hr 23 min 55 sec) 
Heartbeat CPU 0 instructions: 110000004 cycles: 248644853 heartbeat IPC: 0.605728 cumulative IPC: 0.409272 (Simulation time: 0 hr 25 min 27 sec) 
Finished CPU 0 instructions: 100000002 cycles: 244336128 cumulative IPC: 0.409272 (Simulation time: 0 hr 25 min 27 sec) 

ChampSim completed all CPUs

Region of Interest Statistics

CPU 0 cumulative IPC: 0.409272 instructions: 100000002 cycles: 244336128
cpu0_DTLB TOTAL     ACCESS:   26733813  HIT:   26621185  MISS:     112628
cpu0_DTLB LOAD      ACCESS:   21493254  HIT:   21397557  MISS:      95697
cpu0_DTLB RFO       ACCESS:    5240559  HIT:    5223628  MISS:      16931
cpu0_DTLB PREFETCH  ACCESS:          0  HIT:          0  MISS:          0
cpu0_DTLB WRITEBACK ACCESS:          0  HIT:          0  MISS:          0
cpu0_DTLB TRANSLATION ACCESS:          0  HIT:          0  MISS:          0
cpu0_DTLB PREFETCH  REQUESTED:          0  ISSUED:          0  USEFUL:          0  USELESS:          0
cpu0_DTLB AVERAGE MISS LATENCY: 103.057 cycles
cpu0_ITLB TOTAL     ACCESS:    3126470  HIT:    3126413  MISS:         57
cpu0_ITLB LOAD      ACCESS:    3126470  HIT:    3126413  MISS:         57
cpu0_ITLB RFO       ACCESS:          0  HIT:          0  MISS:          0
cpu0_ITLB PREFETCH  ACCESS:          0  HIT:          0  MISS:          0
cpu0_ITLB WRITEBACK ACCESS:          0  HIT:          0  MISS:          0
cpu0_ITLB TRANSLATION ACCESS:          0  HIT:          0  MISS:          0
cpu0_ITLB PREFETCH  REQUESTED:          0  ISSUED:          0  USEFUL:          0  USELESS:          0
cpu0_ITLB AVERAGE MISS LATENCY: 240.772 cycles
cpu0_L1I TOTAL     ACCESS:    1639184  HIT:    1638112  MISS:       1072
cpu0_L1I LOAD      ACCESS:    1639184  HIT:    1638112  MISS:       1072
cpu0_L1I RFO       ACCESS:          0  HIT:          0  MISS:          0
cpu0_L1I PREFETCH  ACCESS:          0  HIT:          0  MISS:          0
cpu0_L1I WRITEBACK ACCESS:          0  HIT:          0  MISS:          0
cpu0_L1I TRANSLATION ACCESS:          0  HIT:          0  MISS:          0
cpu0_L1I PREFETCH  REQUESTED:          0  ISSUED:          0  USEFUL:          0  USELESS:          0
cpu0_L1I AVERAGE MISS LATENCY: 326.721 cycles
cpu0_STLB TOTAL     ACCESS:     112685  HIT:      62989  MISS:      49696
cpu0_STLB LOAD      ACCESS:      95754  HIT:      56401  MISS:      39353
cpu0_STLB RFO       ACCESS:      16931  HIT:       6588  MISS:      10343
cpu0_STLB PREFETCH  ACCESS:          0  HIT:          0  MISS:          0
cpu0_STLB WRITEBACK ACCESS:          0  HIT:          0  MISS:          0
cpu0_STLB TRANSLATION ACCESS:          0  HIT:          0  MISS:          0
cpu0_STLB PREFETCH  REQUESTED:          0  ISSUED:          0  USEFUL:          0  USELESS:          0
cpu0_STLB AVERAGE MISS LATENCY: 213.352 cycles
cpu0_L1D TOTAL     ACCESS:   22243417  HIT:   18207395  MISS:    4036022
cpu0_L1D LOAD      ACCESS:   13858245  HIT:   10769203  MISS:    3089042
cpu0_L1D RFO       ACCESS:    8342768  HIT:    7400699  MISS:     942069
cpu0_L1D PREFETCH  ACCESS:          0  HIT:          0  MISS:          0
cpu0_L1D WRITEBACK ACCESS:          0  HIT:          0  MISS:          0
cpu0_L1D TRANSLATION ACCESS:      42404  HIT:      37493  MISS:       4911
cpu0_L1D PREFETCH  REQUESTED:          0  ISSUED:          0  USEFUL:          0  USELESS:          0
cpu0_L1D AVERAGE MISS LATENCY: 665.517 cycles
cpu0_L2C TOTAL     ACCESS:    5249175  HIT:    2252144  MISS:    2997031
cpu0_L2C LOAD      ACCESS:    3090111  HIT:     791462  MISS:    2298649
cpu0_L2C RFO       ACCESS:     941977  HIT:     246166  MISS:     695811
cpu0_L2C PREFETCH  ACCESS:          0  HIT:          0  MISS:          0
cpu0_L2C WRITEBACK ACCESS:    1212176  HIT:    1209886  MISS:       2290
cpu0_L2C TRANSLATION ACCESS:       4911  HIT:       4630  MISS:        281
cpu0_L2C PREFETCH  REQUESTED:          0  ISSUED:          0  USEFUL:          0  USELESS:          0
cpu0_L2C AVERAGE MISS LATENCY: 881.461 cycles
LLC TOTAL     ACCESS:    3927845  HIT:     501410  MISS:    3426435
LLC LOAD      ACCESS:    2298639  HIT:     288190  MISS:    2010449
LLC RFO       ACCESS:     695802  HIT:      39873  MISS:     655929
LLC PREFETCH  ACCESS:          0  HIT:          0  MISS:          0
LLC WRITEBACK ACCESS:     933123  HIT:     173115  MISS:     760008
LLC TRANSLATION ACCESS:        281  HIT:        232  MISS:         49
LLC PREFETCH  REQUESTED:          0  ISSUED:          0  USEFUL:          0  USELESS:          0
LLC AVERAGE MISS LATENCY: 752.608 cycles
OPTgen accesses: 50367
OPTgen hits: 7982
OPTgen hit rate: 15.8477


Insertion Distribution: 
	LOAD 84208 0 243837 1847737 
	RFO 367 0 78279 579989 
	PREF 0 0 0 0 
	WRITEBACK 0 0 0 778554 
	TRANSLATION 1 0 48 15 
Total Prefetch Downgrades: 0
DIP stats:
h_count: 1909(0.000453378)
s_count: 4208709(0.999547)
total: 4210618
hm_count: 54460
sm_count: 56474

DRAM Statistics
 CHANNEL 0
 RQ ROW_BUFFER_HIT:     168750  ROW_BUFFER_MISS:    2497401
 DBUS AVG_CONGESTED_CYCLE:    3.97674
 WQ ROW_BUFFER_HIT:      49569  ROW_BUFFER_MISS:     817542  FULL:      12564


CPU 0 Branch Prediction Accuracy: 96.9231% MPKI: 1.73686 Average ROB Occupancy at Mispredict: 310.474
Branch type MPKI
BRANCH_DIRECT_JUMP: 0.00082
BRANCH_INDIRECT: 0.00014
BRANCH_CONDITIONAL: 1.73229
BRANCH_DIRECT_CALL: 0.00185
BRANCH_INDIRECT_CALL: 3e-05
BRANCH_RETURN: 0.00173

