
*** ChampSim Multicore Out-of-Order Simulator ***

Warmup Instructions: 10000000
Simulation Instructions: 100000000
Number of CPUs: 1
Off-chip DRAM Size: 4 GiB Channels: 1 Width: 64-bit Data Rate: 3200 MT/s

VirtualMemory physical capacity: 8588881920 num_ppages: 2096895
VirtualMemory page size: 4096 log2_page_size: 12

CPU 0 runs /datasets/cs240c-wi22-a00-public/data/Assignment2/cactusADM_734B.trace.xz
CPU 0 Bimodal branch predictor
Basic BTB sets: 1024 ways: 8 indirect buffer size: 4096 RAS size: 64
Initialize Hawkeye state
Initialize SRRIP state
Heartbeat CPU 0 instructions: 10000002 cycles: 3647078 heartbeat IPC: 2.74192 cumulative IPC: 2.74192 (Simulation time: 0 hr 0 min 35 sec) 

Warmup complete CPU 0 instructions: 10000002 cycles: 3647078 (Simulation time: 0 hr 0 min 35 sec) 

Heartbeat CPU 0 instructions: 20000004 cycles: 13456616 heartbeat IPC: 1.01942 cumulative IPC: 1.01942 (Simulation time: 0 hr 1 min 39 sec) 
Heartbeat CPU 0 instructions: 30000001 cycles: 23065896 heartbeat IPC: 1.04066 cumulative IPC: 1.02993 (Simulation time: 0 hr 2 min 43 sec) 
Heartbeat CPU 0 instructions: 40000004 cycles: 32935206 heartbeat IPC: 1.01324 cumulative IPC: 1.02431 (Simulation time: 0 hr 3 min 47 sec) 
Heartbeat CPU 0 instructions: 50000000 cycles: 42484994 heartbeat IPC: 1.04714 cumulative IPC: 1.02992 (Simulation time: 0 hr 4 min 51 sec) 
Heartbeat CPU 0 instructions: 60000002 cycles: 48843579 heartbeat IPC: 1.57268 cumulative IPC: 1.10628 (Simulation time: 0 hr 5 min 43 sec) 
Heartbeat CPU 0 instructions: 70000003 cycles: 58103357 heartbeat IPC: 1.07994 cumulative IPC: 1.1018 (Simulation time: 0 hr 6 min 45 sec) 
Heartbeat CPU 0 instructions: 80000002 cycles: 67273260 heartbeat IPC: 1.09052 cumulative IPC: 1.10018 (Simulation time: 0 hr 7 min 46 sec) 
Heartbeat CPU 0 instructions: 90000000 cycles: 76603727 heartbeat IPC: 1.07176 cumulative IPC: 1.09654 (Simulation time: 0 hr 8 min 48 sec) 
Heartbeat CPU 0 instructions: 100000004 cycles: 82808940 heartbeat IPC: 1.61155 cumulative IPC: 1.13691 (Simulation time: 0 hr 9 min 39 sec) 
Heartbeat CPU 0 instructions: 110000001 cycles: 91828176 heartbeat IPC: 1.10874 cumulative IPC: 1.13403 (Simulation time: 0 hr 10 min 39 sec) 
Finished CPU 0 instructions: 100000004 cycles: 88181099 cumulative IPC: 1.13403 (Simulation time: 0 hr 10 min 39 sec) 

ChampSim completed all CPUs

Region of Interest Statistics

CPU 0 cumulative IPC: 1.13403 instructions: 100000004 cycles: 88181099
cpu0_DTLB TOTAL     ACCESS:   21697733  HIT:   19851391  MISS:    1846342
cpu0_DTLB LOAD      ACCESS:   17829201  HIT:   16571229  MISS:    1257972
cpu0_DTLB RFO       ACCESS:    3868532  HIT:    3280162  MISS:     588370
cpu0_DTLB PREFETCH  ACCESS:          0  HIT:          0  MISS:          0
cpu0_DTLB WRITEBACK ACCESS:          0  HIT:          0  MISS:          0
cpu0_DTLB TRANSLATION ACCESS:          0  HIT:          0  MISS:          0
cpu0_DTLB PREFETCH  REQUESTED:          0  ISSUED:          0  USEFUL:          0  USELESS:          0
cpu0_DTLB AVERAGE MISS LATENCY: 19.1468 cycles
cpu0_ITLB TOTAL     ACCESS:    1526607  HIT:    1526607  MISS:          0
cpu0_ITLB LOAD      ACCESS:    1526607  HIT:    1526607  MISS:          0
cpu0_ITLB RFO       ACCESS:          0  HIT:          0  MISS:          0
cpu0_ITLB PREFETCH  ACCESS:          0  HIT:          0  MISS:          0
cpu0_ITLB WRITEBACK ACCESS:          0  HIT:          0  MISS:          0
cpu0_ITLB TRANSLATION ACCESS:          0  HIT:          0  MISS:          0
cpu0_ITLB PREFETCH  REQUESTED:          0  ISSUED:          0  USEFUL:          0  USELESS:          0
cpu0_ITLB AVERAGE MISS LATENCY: -nan cycles
cpu0_L1I TOTAL     ACCESS:    7870362  HIT:    7870359  MISS:          3
cpu0_L1I LOAD      ACCESS:    7870362  HIT:    7870359  MISS:          3
cpu0_L1I RFO       ACCESS:          0  HIT:          0  MISS:          0
cpu0_L1I PREFETCH  ACCESS:          0  HIT:          0  MISS:          0
cpu0_L1I WRITEBACK ACCESS:          0  HIT:          0  MISS:          0
cpu0_L1I TRANSLATION ACCESS:          0  HIT:          0  MISS:          0
cpu0_L1I PREFETCH  REQUESTED:          0  ISSUED:          0  USEFUL:          0  USELESS:          0
cpu0_L1I AVERAGE MISS LATENCY: 757 cycles
cpu0_STLB TOTAL     ACCESS:    1846342  HIT:     897611  MISS:     948731
cpu0_STLB LOAD      ACCESS:    1257972  HIT:     644557  MISS:     613415
cpu0_STLB RFO       ACCESS:     588370  HIT:     253054  MISS:     335316
cpu0_STLB PREFETCH  ACCESS:          0  HIT:          0  MISS:          0
cpu0_STLB WRITEBACK ACCESS:          0  HIT:          0  MISS:          0
cpu0_STLB TRANSLATION ACCESS:          0  HIT:          0  MISS:          0
cpu0_STLB PREFETCH  REQUESTED:          0  ISSUED:          0  USEFUL:          0  USELESS:          0
cpu0_STLB AVERAGE MISS LATENCY: 19.6214 cycles
cpu0_L1D TOTAL     ACCESS:   37567836  HIT:   36247564  MISS:    1320272
cpu0_L1D LOAD      ACCESS:   25701316  HIT:   24650572  MISS:    1050744
cpu0_L1D RFO       ACCESS:   10918780  HIT:   10654632  MISS:     264148
cpu0_L1D PREFETCH  ACCESS:          0  HIT:          0  MISS:          0
cpu0_L1D WRITEBACK ACCESS:          0  HIT:          0  MISS:          0
cpu0_L1D TRANSLATION ACCESS:     947740  HIT:     942360  MISS:       5380
cpu0_L1D PREFETCH  REQUESTED:          0  ISSUED:          0  USEFUL:          0  USELESS:          0
cpu0_L1D AVERAGE MISS LATENCY: 333.201 cycles
cpu0_L2C TOTAL     ACCESS:    1588231  HIT:     691827  MISS:     896404
cpu0_L2C LOAD      ACCESS:    1050747  HIT:     418936  MISS:     631811
cpu0_L2C RFO       ACCESS:     264148  HIT:          0  MISS:     264148
cpu0_L2C PREFETCH  ACCESS:          0  HIT:          0  MISS:          0
cpu0_L2C WRITEBACK ACCESS:     267956  HIT:     267758  MISS:        198
cpu0_L2C TRANSLATION ACCESS:       5380  HIT:       5133  MISS:        247
cpu0_L2C PREFETCH  REQUESTED:          0  ISSUED:          0  USEFUL:          0  USELESS:          0
cpu0_L2C AVERAGE MISS LATENCY: 474.538 cycles
LLC TOTAL     ACCESS:    1162864  HIT:     319459  MISS:     843405
LLC LOAD      ACCESS:     631811  HIT:     151989  MISS:     479822
LLC RFO       ACCESS:     264148  HIT:      58719  MISS:     205429
LLC PREFETCH  ACCESS:          0  HIT:          0  MISS:          0
LLC WRITEBACK ACCESS:     266658  HIT:     108693  MISS:     157965
LLC TRANSLATION ACCESS:        247  HIT:         58  MISS:        189
LLC PREFETCH  REQUESTED:          0  ISSUED:          0  USEFUL:          0  USELESS:          0
LLC AVERAGE MISS LATENCY: 482.042 cycles
OPTgen accesses: 15001
OPTgen hits: 1396
OPTgen hit rate: 9.30605


Insertion Distribution: 
	LOAD 27448 0 76682 426880 
	RFO 30811 0 20699 166412 
	PREF 0 0 0 0 
	WRITEBACK 0 0 0 160697 
	TRANSLATION 1 0 57 173 
Total Prefetch Downgrades: 0
DIP stats:
h_count: 667026(0.539905)
s_count: 568424(0.460095)
total: 1235450
hm_count: 14163
sm_count: 13968

DRAM Statistics
 CHANNEL 0
 RQ ROW_BUFFER_HIT:       6209  ROW_BUFFER_MISS:     679225
 DBUS AVG_CONGESTED_CYCLE:    3.97813
 WQ ROW_BUFFER_HIT:      17774  ROW_BUFFER_MISS:     210396  FULL:       1008


CPU 0 Branch Prediction Accuracy: 97.7528% MPKI: 0.04677 Average ROB Occupancy at Mispredict: 283.853
Branch type MPKI
BRANCH_DIRECT_JUMP: 0
BRANCH_INDIRECT: 0
BRANCH_CONDITIONAL: 0.04677
BRANCH_DIRECT_CALL: 0
BRANCH_INDIRECT_CALL: 0
BRANCH_RETURN: 0

