
*** ChampSim Multicore Out-of-Order Simulator ***

Warmup Instructions: 10000000
Simulation Instructions: 100000000
Number of CPUs: 1
Off-chip DRAM Size: 4 GiB Channels: 1 Width: 64-bit Data Rate: 3200 MT/s

VirtualMemory physical capacity: 8588881920 num_ppages: 2096895
VirtualMemory page size: 4096 log2_page_size: 12

CPU 0 runs /datasets/cs240c-wi22-a00-public/data/Assignment2/GemsFDTD_109B.trace.xz
CPU 0 Bimodal branch predictor
Basic BTB sets: 1024 ways: 8 indirect buffer size: 4096 RAS size: 64
Initialize Hawkeye state
Initialize SRRIP state
Heartbeat CPU 0 instructions: 10000004 cycles: 4294006 heartbeat IPC: 2.32883 cumulative IPC: 2.32883 (Simulation time: 0 hr 0 min 40 sec) 

Warmup complete CPU 0 instructions: 10000004 cycles: 4294006 (Simulation time: 0 hr 0 min 40 sec) 

Heartbeat CPU 0 instructions: 20000000 cycles: 34607855 heartbeat IPC: 0.329882 cumulative IPC: 0.329882 (Simulation time: 0 hr 2 min 57 sec) 
Heartbeat CPU 0 instructions: 30000004 cycles: 55607142 heartbeat IPC: 0.476207 cumulative IPC: 0.389764 (Simulation time: 0 hr 4 min 25 sec) 
Heartbeat CPU 0 instructions: 40000004 cycles: 61696970 heartbeat IPC: 1.64208 cumulative IPC: 0.522621 (Simulation time: 0 hr 4 min 59 sec) 
Heartbeat CPU 0 instructions: 50000003 cycles: 82502640 heartbeat IPC: 0.480638 cumulative IPC: 0.511452 (Simulation time: 0 hr 6 min 28 sec) 
Heartbeat CPU 0 instructions: 60000002 cycles: 123371893 heartbeat IPC: 0.244683 cumulative IPC: 0.419893 (Simulation time: 0 hr 9 min 20 sec) 
Heartbeat CPU 0 instructions: 70000001 cycles: 163118949 heartbeat IPC: 0.251591 cumulative IPC: 0.377774 (Simulation time: 0 hr 12 min 7 sec) 
Heartbeat CPU 0 instructions: 80000004 cycles: 202806695 heartbeat IPC: 0.251967 cumulative IPC: 0.352622 (Simulation time: 0 hr 14 min 53 sec) 
Heartbeat CPU 0 instructions: 90000000 cycles: 242515163 heartbeat IPC: 0.251835 cumulative IPC: 0.335822 (Simulation time: 0 hr 17 min 40 sec) 
Heartbeat CPU 0 instructions: 100000003 cycles: 282260867 heartbeat IPC: 0.2516 cumulative IPC: 0.32378 (Simulation time: 0 hr 20 min 25 sec) 
Heartbeat CPU 0 instructions: 110000004 cycles: 321998395 heartbeat IPC: 0.251651 cumulative IPC: 0.314758 (Simulation time: 0 hr 23 min 10 sec) 
Finished CPU 0 instructions: 100000000 cycles: 317704389 cumulative IPC: 0.314758 (Simulation time: 0 hr 23 min 10 sec) 

ChampSim completed all CPUs

Region of Interest Statistics

CPU 0 cumulative IPC: 0.314758 instructions: 100000000 cycles: 317704389
cpu0_DTLB TOTAL     ACCESS:   26448584  HIT:   26249160  MISS:     199424
cpu0_DTLB LOAD      ACCESS:   21018247  HIT:   20820824  MISS:     197423
cpu0_DTLB RFO       ACCESS:    5430337  HIT:    5428336  MISS:       2001
cpu0_DTLB PREFETCH  ACCESS:          0  HIT:          0  MISS:          0
cpu0_DTLB WRITEBACK ACCESS:          0  HIT:          0  MISS:          0
cpu0_DTLB TRANSLATION ACCESS:          0  HIT:          0  MISS:          0
cpu0_DTLB PREFETCH  REQUESTED:          0  ISSUED:          0  USEFUL:          0  USELESS:          0
cpu0_DTLB AVERAGE MISS LATENCY: 419.393 cycles
cpu0_ITLB TOTAL     ACCESS:    2044993  HIT:    2044975  MISS:         18
cpu0_ITLB LOAD      ACCESS:    2044993  HIT:    2044975  MISS:         18
cpu0_ITLB RFO       ACCESS:          0  HIT:          0  MISS:          0
cpu0_ITLB PREFETCH  ACCESS:          0  HIT:          0  MISS:          0
cpu0_ITLB WRITEBACK ACCESS:          0  HIT:          0  MISS:          0
cpu0_ITLB TRANSLATION ACCESS:          0  HIT:          0  MISS:          0
cpu0_ITLB PREFETCH  REQUESTED:          0  ISSUED:          0  USEFUL:          0  USELESS:          0
cpu0_ITLB AVERAGE MISS LATENCY: 240.222 cycles
cpu0_L1I TOTAL     ACCESS:    1722993  HIT:    1722563  MISS:        430
cpu0_L1I LOAD      ACCESS:    1722993  HIT:    1722563  MISS:        430
cpu0_L1I RFO       ACCESS:          0  HIT:          0  MISS:          0
cpu0_L1I PREFETCH  ACCESS:          0  HIT:          0  MISS:          0
cpu0_L1I WRITEBACK ACCESS:          0  HIT:          0  MISS:          0
cpu0_L1I TRANSLATION ACCESS:          0  HIT:          0  MISS:          0
cpu0_L1I PREFETCH  REQUESTED:          0  ISSUED:          0  USEFUL:          0  USELESS:          0
cpu0_L1I AVERAGE MISS LATENCY: 350.951 cycles
cpu0_STLB TOTAL     ACCESS:     199442  HIT:      33981  MISS:     165461
cpu0_STLB LOAD      ACCESS:     197441  HIT:      32674  MISS:     164767
cpu0_STLB RFO       ACCESS:       2001  HIT:       1307  MISS:        694
cpu0_STLB PREFETCH  ACCESS:          0  HIT:          0  MISS:          0
cpu0_STLB WRITEBACK ACCESS:          0  HIT:          0  MISS:          0
cpu0_STLB TRANSLATION ACCESS:          0  HIT:          0  MISS:          0
cpu0_STLB PREFETCH  REQUESTED:          0  ISSUED:          0  USEFUL:          0  USELESS:          0
cpu0_STLB AVERAGE MISS LATENCY: 494.539 cycles
cpu0_L1D TOTAL     ACCESS:   22868955  HIT:   19638839  MISS:    3230116
cpu0_L1D LOAD      ACCESS:   13770388  HIT:   10670569  MISS:    3099819
cpu0_L1D RFO       ACCESS:    9008477  HIT:    8880864  MISS:     127613
cpu0_L1D PREFETCH  ACCESS:          0  HIT:          0  MISS:          0
cpu0_L1D WRITEBACK ACCESS:          0  HIT:          0  MISS:          0
cpu0_L1D TRANSLATION ACCESS:      90090  HIT:      87406  MISS:       2684
cpu0_L1D PREFETCH  REQUESTED:          0  ISSUED:          0  USEFUL:          0  USELESS:          0
cpu0_L1D AVERAGE MISS LATENCY: 718.148 cycles
cpu0_L2C TOTAL     ACCESS:    4595378  HIT:    1423481  MISS:    3171897
cpu0_L2C LOAD      ACCESS:    3100249  HIT:      41153  MISS:    3059096
cpu0_L2C RFO       ACCESS:     127613  HIT:      15108  MISS:     112505
cpu0_L2C PREFETCH  ACCESS:          0  HIT:          0  MISS:          0
cpu0_L2C WRITEBACK ACCESS:    1364832  HIT:    1364732  MISS:        100
cpu0_L2C TRANSLATION ACCESS:       2684  HIT:       2488  MISS:        196
cpu0_L2C PREFETCH  REQUESTED:          0  ISSUED:          0  USEFUL:          0  USELESS:          0
cpu0_L2C AVERAGE MISS LATENCY: 720.159 cycles
LLC TOTAL     ACCESS:    4523124  HIT:    1064822  MISS:    3458302
LLC LOAD      ACCESS:    3059090  HIT:     700548  MISS:    2358542
LLC RFO       ACCESS:     112505  HIT:      96222  MISS:      16283
LLC PREFETCH  ACCESS:          0  HIT:          0  MISS:          0
LLC WRITEBACK ACCESS:    1351333  HIT:     267933  MISS:    1083400
LLC TRANSLATION ACCESS:        196  HIT:        119  MISS:         77
LLC PREFETCH  REQUESTED:          0  ISSUED:          0  USEFUL:          0  USELESS:          0
LLC AVERAGE MISS LATENCY: 641.253 cycles
OPTgen accesses: 53407
OPTgen hits: 9492
OPTgen hit rate: 17.773


Insertion Distribution: 
	LOAD 592378 0 241717 1750077 
	RFO 4363 0 8979 2943 
	PREF 0 0 0 0 
	WRITEBACK 0 0 0 1193363 
	TRANSLATION 1 0 60 35 
Total Prefetch Downgrades: 0
DIP stats:
h_count: 3659444(0.746071)
s_count: 1245510(0.253929)
total: 4904954
hm_count: 58962
sm_count: 61391

DRAM Statistics
 CHANNEL 0
 RQ ROW_BUFFER_HIT:      47071  ROW_BUFFER_MISS:    2327816
 DBUS AVG_CONGESTED_CYCLE:    3.99596
 WQ ROW_BUFFER_HIT:      21925  ROW_BUFFER_MISS:    1229607  FULL:      75699


CPU 0 Branch Prediction Accuracy: 98.929% MPKI: 0.55515 Average ROB Occupancy at Mispredict: 266.542
Branch type MPKI
BRANCH_DIRECT_JUMP: 0.00045
BRANCH_INDIRECT: 1e-05
BRANCH_CONDITIONAL: 0.5534
BRANCH_DIRECT_CALL: 0.00065
BRANCH_INDIRECT_CALL: 0
BRANCH_RETURN: 0.00064

