
*** ChampSim Multicore Out-of-Order Simulator ***

Warmup Instructions: 10000000
Simulation Instructions: 100000000
Number of CPUs: 1
Off-chip DRAM Size: 4 GiB Channels: 1 Width: 64-bit Data Rate: 3200 MT/s

VirtualMemory physical capacity: 8588881920 num_ppages: 2096895
VirtualMemory page size: 4096 log2_page_size: 12

CPU 0 runs /datasets/cs240c-wi22-a00-public/data/Assignment2/perlbench_135B.trace.xz
CPU 0 Bimodal branch predictor
Basic BTB sets: 1024 ways: 8 indirect buffer size: 4096 RAS size: 64
Initialize Hawkeye state
Initialize SRRIP state
Heartbeat CPU 0 instructions: 10000000 cycles: 2501133 heartbeat IPC: 3.99819 cumulative IPC: 3.99819 (Simulation time: 0 hr 0 min 21 sec) 

Warmup complete CPU 0 instructions: 10000004 cycles: 2501134 (Simulation time: 0 hr 0 min 21 sec) 

Heartbeat CPU 0 instructions: 20000003 cycles: 16327536 heartbeat IPC: 0.723254 cumulative IPC: 0.723254 (Simulation time: 0 hr 0 min 54 sec) 
Heartbeat CPU 0 instructions: 30000004 cycles: 29122790 heartbeat IPC: 0.78154 cumulative IPC: 0.751268 (Simulation time: 0 hr 1 min 26 sec) 
Heartbeat CPU 0 instructions: 40000001 cycles: 40572332 heartbeat IPC: 0.873397 cumulative IPC: 0.787997 (Simulation time: 0 hr 1 min 56 sec) 
Heartbeat CPU 0 instructions: 50000000 cycles: 53201745 heartbeat IPC: 0.791802 cumulative IPC: 0.788945 (Simulation time: 0 hr 2 min 28 sec) 
Heartbeat CPU 0 instructions: 60000000 cycles: 64729133 heartbeat IPC: 0.867499 cumulative IPC: 0.803497 (Simulation time: 0 hr 2 min 58 sec) 
Heartbeat CPU 0 instructions: 70000001 cycles: 77606563 heartbeat IPC: 0.776553 cumulative IPC: 0.798877 (Simulation time: 0 hr 3 min 28 sec) 
Heartbeat CPU 0 instructions: 80000000 cycles: 88550210 heartbeat IPC: 0.913772 cumulative IPC: 0.813489 (Simulation time: 0 hr 3 min 55 sec) 
Heartbeat CPU 0 instructions: 90000004 cycles: 99426552 heartbeat IPC: 0.919427 cumulative IPC: 0.825377 (Simulation time: 0 hr 4 min 22 sec) 
Heartbeat CPU 0 instructions: 100000000 cycles: 112953785 heartbeat IPC: 0.739249 cumulative IPC: 0.814829 (Simulation time: 0 hr 4 min 53 sec) 
Heartbeat CPU 0 instructions: 110000000 cycles: 126245750 heartbeat IPC: 0.752334 cumulative IPC: 0.808116 (Simulation time: 0 hr 5 min 25 sec) 
Finished CPU 0 instructions: 100000000 cycles: 123744618 cumulative IPC: 0.808116 (Simulation time: 0 hr 5 min 25 sec) 

ChampSim completed all CPUs

Region of Interest Statistics

CPU 0 cumulative IPC: 0.808116 instructions: 100000000 cycles: 123744618
cpu0_DTLB TOTAL     ACCESS:   24834235  HIT:   24177488  MISS:     656747
cpu0_DTLB LOAD      ACCESS:   16163563  HIT:   15592124  MISS:     571439
cpu0_DTLB RFO       ACCESS:    8670672  HIT:    8585364  MISS:      85308
cpu0_DTLB PREFETCH  ACCESS:          0  HIT:          0  MISS:          0
cpu0_DTLB WRITEBACK ACCESS:          0  HIT:          0  MISS:          0
cpu0_DTLB TRANSLATION ACCESS:          0  HIT:          0  MISS:          0
cpu0_DTLB PREFETCH  REQUESTED:          0  ISSUED:          0  USEFUL:          0  USELESS:          0
cpu0_DTLB AVERAGE MISS LATENCY: 9.30693 cycles
cpu0_ITLB TOTAL     ACCESS:    8520290  HIT:    8442126  MISS:      78164
cpu0_ITLB LOAD      ACCESS:    8520290  HIT:    8442126  MISS:      78164
cpu0_ITLB RFO       ACCESS:          0  HIT:          0  MISS:          0
cpu0_ITLB PREFETCH  ACCESS:          0  HIT:          0  MISS:          0
cpu0_ITLB WRITEBACK ACCESS:          0  HIT:          0  MISS:          0
cpu0_ITLB TRANSLATION ACCESS:          0  HIT:          0  MISS:          0
cpu0_ITLB PREFETCH  REQUESTED:          0  ISSUED:          0  USEFUL:          0  USELESS:          0
cpu0_ITLB AVERAGE MISS LATENCY: 9.1144 cycles
cpu0_L1I TOTAL     ACCESS:    9977185  HIT:    9296873  MISS:     680312
cpu0_L1I LOAD      ACCESS:    9977185  HIT:    9296873  MISS:     680312
cpu0_L1I RFO       ACCESS:          0  HIT:          0  MISS:          0
cpu0_L1I PREFETCH  ACCESS:          0  HIT:          0  MISS:          0
cpu0_L1I WRITEBACK ACCESS:          0  HIT:          0  MISS:          0
cpu0_L1I TRANSLATION ACCESS:          0  HIT:          0  MISS:          0
cpu0_L1I PREFETCH  REQUESTED:          0  ISSUED:          0  USEFUL:          0  USELESS:          0
cpu0_L1I AVERAGE MISS LATENCY: 12.115 cycles
cpu0_STLB TOTAL     ACCESS:     734911  HIT:     726458  MISS:       8453
cpu0_STLB LOAD      ACCESS:     649603  HIT:     642240  MISS:       7363
cpu0_STLB RFO       ACCESS:      85308  HIT:      84218  MISS:       1090
cpu0_STLB PREFETCH  ACCESS:          0  HIT:          0  MISS:          0
cpu0_STLB WRITEBACK ACCESS:          0  HIT:          0  MISS:          0
cpu0_STLB TRANSLATION ACCESS:          0  HIT:          0  MISS:          0
cpu0_STLB PREFETCH  REQUESTED:          0  ISSUED:          0  USEFUL:          0  USELESS:          0
cpu0_STLB AVERAGE MISS LATENCY: 24.4188 cycles
cpu0_L1D TOTAL     ACCESS:   32040206  HIT:   31087417  MISS:     952789
cpu0_L1D LOAD      ACCESS:   16947403  HIT:   16082956  MISS:     864447
cpu0_L1D RFO       ACCESS:   15084386  HIT:   14997606  MISS:      86780
cpu0_L1D PREFETCH  ACCESS:          0  HIT:          0  MISS:          0
cpu0_L1D WRITEBACK ACCESS:          0  HIT:          0  MISS:          0
cpu0_L1D TRANSLATION ACCESS:       8417  HIT:       6855  MISS:       1562
cpu0_L1D PREFETCH  REQUESTED:          0  ISSUED:          0  USEFUL:          0  USELESS:          0
cpu0_L1D AVERAGE MISS LATENCY: 17.541 cycles
cpu0_L2C TOTAL     ACCESS:    1889411  HIT:    1714330  MISS:     175081
cpu0_L2C LOAD      ACCESS:    1544745  HIT:    1392620  MISS:     152125
cpu0_L2C RFO       ACCESS:      86773  HIT:      64517  MISS:      22256
cpu0_L2C PREFETCH  ACCESS:          0  HIT:          0  MISS:          0
cpu0_L2C WRITEBACK ACCESS:     256331  HIT:     255861  MISS:        470
cpu0_L2C TRANSLATION ACCESS:       1562  HIT:       1332  MISS:        230
cpu0_L2C PREFETCH  REQUESTED:          0  ISSUED:          0  USEFUL:          0  USELESS:          0
cpu0_L2C AVERAGE MISS LATENCY: 39.7754 cycles
LLC TOTAL     ACCESS:     226405  HIT:     203290  MISS:      23115
LLC LOAD      ACCESS:     152125  HIT:     134300  MISS:      17825
LLC RFO       ACCESS:      22256  HIT:      17540  MISS:       4716
LLC PREFETCH  ACCESS:          0  HIT:          0  MISS:          0
LLC WRITEBACK ACCESS:      51794  HIT:      51226  MISS:        568
LLC TRANSLATION ACCESS:        230  HIT:        224  MISS:          6
LLC PREFETCH  REQUESTED:          0  ISSUED:          0  USEFUL:          0  USELESS:          0
LLC AVERAGE MISS LATENCY: 142.637 cycles
OPTgen accesses: 3385
OPTgen hits: 2644
OPTgen hit rate: 78.1093


Insertion Distribution: 
	LOAD 3172 0 34572 766 
	RFO 29 0 5997 663 
	PREF 0 0 0 0 
	WRITEBACK 0 0 0 574 
	TRANSLATION 0 0 29 1 
Total Prefetch Downgrades: 0
DIP stats:
h_count: 247509(0.89932)
s_count: 27709(0.10068)
total: 275218
hm_count: 729
sm_count: 806

DRAM Statistics
 CHANNEL 0
 RQ ROW_BUFFER_HIT:       4734  ROW_BUFFER_MISS:      17813
 DBUS AVG_CONGESTED_CYCLE:    3.86403
 WQ ROW_BUFFER_HIT:       1188  ROW_BUFFER_MISS:       3332  FULL:          0


CPU 0 Branch Prediction Accuracy: 94.5426% MPKI: 12.0745 Average ROB Occupancy at Mispredict: 40.9027
Branch type MPKI
BRANCH_DIRECT_JUMP: 0.00217
BRANCH_INDIRECT: 0.80239
BRANCH_CONDITIONAL: 9.8183
BRANCH_DIRECT_CALL: 0.00216
BRANCH_INDIRECT_CALL: 1.42497
BRANCH_RETURN: 0.02455

