
*** ChampSim Multicore Out-of-Order Simulator ***

Warmup Instructions: 10000000
Simulation Instructions: 100000000
Number of CPUs: 1
Off-chip DRAM Size: 4 GiB Channels: 1 Width: 64-bit Data Rate: 3200 MT/s

VirtualMemory physical capacity: 8588881920 num_ppages: 2096895
VirtualMemory page size: 4096 log2_page_size: 12

CPU 0 runs /datasets/cs240c-wi22-a00-public/data/Assignment2/bzip2_281B.trace.xz
CPU 0 Bimodal branch predictor
Basic BTB sets: 1024 ways: 8 indirect buffer size: 4096 RAS size: 64
Initialize Hawkeye state
Initialize SRRIP state
Heartbeat CPU 0 instructions: 10000004 cycles: 3227391 heartbeat IPC: 3.09848 cumulative IPC: 3.09848 (Simulation time: 0 hr 0 min 27 sec) 

Warmup complete CPU 0 instructions: 10000004 cycles: 3227391 (Simulation time: 0 hr 0 min 27 sec) 

Heartbeat CPU 0 instructions: 20000000 cycles: 13903290 heartbeat IPC: 0.936689 cumulative IPC: 0.936689 (Simulation time: 0 hr 1 min 0 sec) 
Heartbeat CPU 0 instructions: 30000001 cycles: 26088397 heartbeat IPC: 0.820674 cumulative IPC: 0.874852 (Simulation time: 0 hr 1 min 48 sec) 
Heartbeat CPU 0 instructions: 40000002 cycles: 30749310 heartbeat IPC: 2.1455 cumulative IPC: 1.09004 (Simulation time: 0 hr 2 min 10 sec) 
Heartbeat CPU 0 instructions: 50000002 cycles: 35722474 heartbeat IPC: 2.01079 cumulative IPC: 1.23096 (Simulation time: 0 hr 2 min 32 sec) 
Heartbeat CPU 0 instructions: 60000000 cycles: 40819116 heartbeat IPC: 1.96208 cumulative IPC: 1.33008 (Simulation time: 0 hr 2 min 58 sec) 
Heartbeat CPU 0 instructions: 70000004 cycles: 48345363 heartbeat IPC: 1.32868 cumulative IPC: 1.32985 (Simulation time: 0 hr 3 min 39 sec) 
Heartbeat CPU 0 instructions: 80000003 cycles: 55963263 heartbeat IPC: 1.3127 cumulative IPC: 1.32737 (Simulation time: 0 hr 4 min 13 sec) 
Heartbeat CPU 0 instructions: 90000003 cycles: 62355088 heartbeat IPC: 1.5645 cumulative IPC: 1.353 (Simulation time: 0 hr 4 min 38 sec) 
Heartbeat CPU 0 instructions: 100000001 cycles: 69004544 heartbeat IPC: 1.50388 cumulative IPC: 1.36826 (Simulation time: 0 hr 5 min 5 sec) 
Heartbeat CPU 0 instructions: 110000000 cycles: 75738414 heartbeat IPC: 1.48503 cumulative IPC: 1.3791 (Simulation time: 0 hr 5 min 32 sec) 
Finished CPU 0 instructions: 100000000 cycles: 72511025 cumulative IPC: 1.3791 (Simulation time: 0 hr 5 min 32 sec) 

ChampSim completed all CPUs

Region of Interest Statistics

CPU 0 cumulative IPC: 1.3791 instructions: 100000000 cycles: 72511025
cpu0_DTLB TOTAL     ACCESS:   19660663  HIT:   18902055  MISS:     758608
cpu0_DTLB LOAD      ACCESS:   13799846  HIT:   13154169  MISS:     645677
cpu0_DTLB RFO       ACCESS:    5860817  HIT:    5747886  MISS:     112931
cpu0_DTLB PREFETCH  ACCESS:          0  HIT:          0  MISS:          0
cpu0_DTLB WRITEBACK ACCESS:          0  HIT:          0  MISS:          0
cpu0_DTLB TRANSLATION ACCESS:          0  HIT:          0  MISS:          0
cpu0_DTLB PREFETCH  REQUESTED:          0  ISSUED:          0  USEFUL:          0  USELESS:          0
cpu0_DTLB AVERAGE MISS LATENCY: 9.33253 cycles
cpu0_ITLB TOTAL     ACCESS:    6438494  HIT:    6438480  MISS:         14
cpu0_ITLB LOAD      ACCESS:    6438494  HIT:    6438480  MISS:         14
cpu0_ITLB RFO       ACCESS:          0  HIT:          0  MISS:          0
cpu0_ITLB PREFETCH  ACCESS:          0  HIT:          0  MISS:          0
cpu0_ITLB WRITEBACK ACCESS:          0  HIT:          0  MISS:          0
cpu0_ITLB TRANSLATION ACCESS:          0  HIT:          0  MISS:          0
cpu0_ITLB PREFETCH  REQUESTED:          0  ISSUED:          0  USEFUL:          0  USELESS:          0
cpu0_ITLB AVERAGE MISS LATENCY: 222.429 cycles
cpu0_L1I TOTAL     ACCESS:    2685607  HIT:    2685253  MISS:        354
cpu0_L1I LOAD      ACCESS:    2685607  HIT:    2685253  MISS:        354
cpu0_L1I RFO       ACCESS:          0  HIT:          0  MISS:          0
cpu0_L1I PREFETCH  ACCESS:          0  HIT:          0  MISS:          0
cpu0_L1I WRITEBACK ACCESS:          0  HIT:          0  MISS:          0
cpu0_L1I TRANSLATION ACCESS:          0  HIT:          0  MISS:          0
cpu0_L1I PREFETCH  REQUESTED:          0  ISSUED:          0  USEFUL:          0  USELESS:          0
cpu0_L1I AVERAGE MISS LATENCY: 175.025 cycles
cpu0_STLB TOTAL     ACCESS:     758622  HIT:     757540  MISS:       1082
cpu0_STLB LOAD      ACCESS:     645691  HIT:     644784  MISS:        907
cpu0_STLB RFO       ACCESS:     112931  HIT:     112756  MISS:        175
cpu0_STLB PREFETCH  ACCESS:          0  HIT:          0  MISS:          0
cpu0_STLB WRITEBACK ACCESS:          0  HIT:          0  MISS:          0
cpu0_STLB TRANSLATION ACCESS:          0  HIT:          0  MISS:          0
cpu0_STLB PREFETCH  REQUESTED:          0  ISSUED:          0  USEFUL:          0  USELESS:          0
cpu0_STLB AVERAGE MISS LATENCY: 204.619 cycles
cpu0_L1D TOTAL     ACCESS:   23609750  HIT:   22010427  MISS:    1599323
cpu0_L1D LOAD      ACCESS:   13835311  HIT:   12442329  MISS:    1392982
cpu0_L1D RFO       ACCESS:    9773371  HIT:    9567535  MISS:     205836
cpu0_L1D PREFETCH  ACCESS:          0  HIT:          0  MISS:          0
cpu0_L1D WRITEBACK ACCESS:          0  HIT:          0  MISS:          0
cpu0_L1D TRANSLATION ACCESS:       1068  HIT:        563  MISS:        505
cpu0_L1D PREFETCH  REQUESTED:          0  ISSUED:          0  USEFUL:          0  USELESS:          0
cpu0_L1D AVERAGE MISS LATENCY: 89.7227 cycles
cpu0_L2C TOTAL     ACCESS:    1813980  HIT:     911779  MISS:     902201
cpu0_L2C LOAD      ACCESS:    1393332  HIT:     648941  MISS:     744391
cpu0_L2C RFO       ACCESS:     205824  HIT:      48298  MISS:     157526
cpu0_L2C PREFETCH  ACCESS:          0  HIT:          0  MISS:          0
cpu0_L2C WRITEBACK ACCESS:     214319  HIT:     214065  MISS:        254
cpu0_L2C TRANSLATION ACCESS:        505  HIT:        475  MISS:         30
cpu0_L2C PREFETCH  REQUESTED:          0  ISSUED:          0  USEFUL:          0  USELESS:          0
cpu0_L2C AVERAGE MISS LATENCY: 139.479 cycles
LLC TOTAL     ACCESS:    1060533  HIT:     837938  MISS:     222595
LLC LOAD      ACCESS:     744390  HIT:     614228  MISS:     130162
LLC RFO       ACCESS:     157515  HIT:      85957  MISS:      71558
LLC PREFETCH  ACCESS:          0  HIT:          0  MISS:          0
LLC WRITEBACK ACCESS:     158598  HIT:     137731  MISS:      20867
LLC TRANSLATION ACCESS:         30  HIT:         22  MISS:          8
LLC PREFETCH  REQUESTED:          0  ISSUED:          0  USEFUL:          0  USELESS:          0
LLC AVERAGE MISS LATENCY: 480.217 cycles
OPTgen accesses: 14789
OPTgen hits: 11479
OPTgen hit rate: 77.6185


Insertion Distribution: 
	LOAD 38843 0 36540 77026 
	RFO 12103 0 48125 28946 
	PREF 0 0 0 0 
	WRITEBACK 0 0 0 21362 
	TRANSLATION 0 0 19 0 
Total Prefetch Downgrades: 0
DIP stats:
h_count: 519784(0.452461)
s_count: 629010(0.547539)
total: 1148794
hm_count: 4081
sm_count: 4235

DRAM Statistics
 CHANNEL 0
 RQ ROW_BUFFER_HIT:      58583  ROW_BUFFER_MISS:     142818
 DBUS AVG_CONGESTED_CYCLE:    3.98522
 WQ ROW_BUFFER_HIT:       4819  ROW_BUFFER_MISS:      86971  FULL:        204


CPU 0 Branch Prediction Accuracy: 91.2056% MPKI: 12.1715 Average ROB Occupancy at Mispredict: 68.5049
Branch type MPKI
BRANCH_DIRECT_JUMP: 0.00059
BRANCH_INDIRECT: 0
BRANCH_CONDITIONAL: 12.1706
BRANCH_DIRECT_CALL: 0.00014
BRANCH_INDIRECT_CALL: 0
BRANCH_RETURN: 0.00019

