
*** ChampSim Multicore Out-of-Order Simulator ***

Warmup Instructions: 10000000
Simulation Instructions: 100000000
Number of CPUs: 1
Off-chip DRAM Size: 4 GiB Channels: 1 Width: 64-bit Data Rate: 3200 MT/s

VirtualMemory physical capacity: 8588881920 num_ppages: 2096895
VirtualMemory page size: 4096 log2_page_size: 12

CPU 0 runs /datasets/cs240c-wi22-a00-public/data/Assignment2/libquantum_1735B.trace.xz
CPU 0 Bimodal branch predictor
Basic BTB sets: 1024 ways: 8 indirect buffer size: 4096 RAS size: 64
Initialize Hawkeye state
Initialize SRRIP state
Heartbeat CPU 0 instructions: 10000002 cycles: 2500058 heartbeat IPC: 3.99991 cumulative IPC: 3.99991 (Simulation time: 0 hr 0 min 16 sec) 

Warmup complete CPU 0 instructions: 10000002 cycles: 2500058 (Simulation time: 0 hr 0 min 16 sec) 

Heartbeat CPU 0 instructions: 20000003 cycles: 36614395 heartbeat IPC: 0.293132 cumulative IPC: 0.293132 (Simulation time: 0 hr 1 min 4 sec) 
Heartbeat CPU 0 instructions: 30000001 cycles: 70939668 heartbeat IPC: 0.29133 cumulative IPC: 0.292228 (Simulation time: 0 hr 1 min 50 sec) 
Heartbeat CPU 0 instructions: 40000003 cycles: 110089027 heartbeat IPC: 0.255432 cumulative IPC: 0.278839 (Simulation time: 0 hr 2 min 40 sec) 
Heartbeat CPU 0 instructions: 50000002 cycles: 147976508 heartbeat IPC: 0.263939 cumulative IPC: 0.274959 (Simulation time: 0 hr 3 min 27 sec) 
Heartbeat CPU 0 instructions: 60000001 cycles: 152992984 heartbeat IPC: 1.99343 cumulative IPC: 0.332242 (Simulation time: 0 hr 3 min 57 sec) 
Heartbeat CPU 0 instructions: 70000002 cycles: 157858501 heartbeat IPC: 2.05528 cumulative IPC: 0.386204 (Simulation time: 0 hr 4 min 25 sec) 
Heartbeat CPU 0 instructions: 80000000 cycles: 196372783 heartbeat IPC: 0.259644 cumulative IPC: 0.361062 (Simulation time: 0 hr 5 min 14 sec) 
Heartbeat CPU 0 instructions: 90000000 cycles: 235010570 heartbeat IPC: 0.258814 cumulative IPC: 0.34407 (Simulation time: 0 hr 6 min 3 sec) 
Heartbeat CPU 0 instructions: 100000000 cycles: 293309533 heartbeat IPC: 0.17153 cumulative IPC: 0.309481 (Simulation time: 0 hr 7 min 5 sec) 
Heartbeat CPU 0 instructions: 110000003 cycles: 332409498 heartbeat IPC: 0.255755 cumulative IPC: 0.303113 (Simulation time: 0 hr 7 min 54 sec) 
Finished CPU 0 instructions: 100000001 cycles: 329909440 cumulative IPC: 0.303113 (Simulation time: 0 hr 7 min 54 sec) 

ChampSim completed all CPUs

Region of Interest Statistics

CPU 0 cumulative IPC: 0.303113 instructions: 100000001 cycles: 329909440
cpu0_DTLB TOTAL     ACCESS:    9930104  HIT:    9886501  MISS:      43603
cpu0_DTLB LOAD      ACCESS:    8297018  HIT:    8253420  MISS:      43598
cpu0_DTLB RFO       ACCESS:    1633086  HIT:    1633081  MISS:          5
cpu0_DTLB PREFETCH  ACCESS:          0  HIT:          0  MISS:          0
cpu0_DTLB WRITEBACK ACCESS:          0  HIT:          0  MISS:          0
cpu0_DTLB TRANSLATION ACCESS:          0  HIT:          0  MISS:          0
cpu0_DTLB PREFETCH  REQUESTED:          0  ISSUED:          0  USEFUL:          0  USELESS:          0
cpu0_DTLB AVERAGE MISS LATENCY: 35.7352 cycles
cpu0_ITLB TOTAL     ACCESS:    4579414  HIT:    4579414  MISS:          0
cpu0_ITLB LOAD      ACCESS:    4579414  HIT:    4579414  MISS:          0
cpu0_ITLB RFO       ACCESS:          0  HIT:          0  MISS:          0
cpu0_ITLB PREFETCH  ACCESS:          0  HIT:          0  MISS:          0
cpu0_ITLB WRITEBACK ACCESS:          0  HIT:          0  MISS:          0
cpu0_ITLB TRANSLATION ACCESS:          0  HIT:          0  MISS:          0
cpu0_ITLB PREFETCH  REQUESTED:          0  ISSUED:          0  USEFUL:          0  USELESS:          0
cpu0_ITLB AVERAGE MISS LATENCY: -nan cycles
cpu0_L1I TOTAL     ACCESS:         20  HIT:         11  MISS:          9
cpu0_L1I LOAD      ACCESS:         20  HIT:         11  MISS:          9
cpu0_L1I RFO       ACCESS:          0  HIT:          0  MISS:          0
cpu0_L1I PREFETCH  ACCESS:          0  HIT:          0  MISS:          0
cpu0_L1I WRITEBACK ACCESS:          0  HIT:          0  MISS:          0
cpu0_L1I TRANSLATION ACCESS:          0  HIT:          0  MISS:          0
cpu0_L1I PREFETCH  REQUESTED:          0  ISSUED:          0  USEFUL:          0  USELESS:          0
cpu0_L1I AVERAGE MISS LATENCY: 184.222 cycles
cpu0_STLB TOTAL     ACCESS:      43603  HIT:          0  MISS:      43603
cpu0_STLB LOAD      ACCESS:      43598  HIT:          0  MISS:      43598
cpu0_STLB RFO       ACCESS:          5  HIT:          0  MISS:          5
cpu0_STLB PREFETCH  ACCESS:          0  HIT:          0  MISS:          0
cpu0_STLB WRITEBACK ACCESS:          0  HIT:          0  MISS:          0
cpu0_STLB TRANSLATION ACCESS:          0  HIT:          0  MISS:          0
cpu0_STLB PREFETCH  REQUESTED:          0  ISSUED:          0  USEFUL:          0  USELESS:          0
cpu0_STLB AVERAGE MISS LATENCY: 26.7352 cycles
cpu0_L1D TOTAL     ACCESS:    6547586  HIT:    3758153  MISS:    2789433
cpu0_L1D LOAD      ACCESS:    4615478  HIT:    1826095  MISS:    2789383
cpu0_L1D RFO       ACCESS:    1888505  HIT:    1888485  MISS:         20
cpu0_L1D PREFETCH  ACCESS:          0  HIT:          0  MISS:          0
cpu0_L1D WRITEBACK ACCESS:          0  HIT:          0  MISS:          0
cpu0_L1D TRANSLATION ACCESS:      43603  HIT:      43573  MISS:         30
cpu0_L1D PREFETCH  REQUESTED:          0  ISSUED:          0  USEFUL:          0  USELESS:          0
cpu0_L1D AVERAGE MISS LATENCY: 163.183 cycles
cpu0_L2C TOTAL     ACCESS:    3804021  HIT:    1014579  MISS:    2789442
cpu0_L2C LOAD      ACCESS:    2789392  HIT:          0  MISS:    2789392
cpu0_L2C RFO       ACCESS:         20  HIT:          0  MISS:         20
cpu0_L2C PREFETCH  ACCESS:          0  HIT:          0  MISS:          0
cpu0_L2C WRITEBACK ACCESS:    1014579  HIT:    1014579  MISS:          0
cpu0_L2C TRANSLATION ACCESS:         30  HIT:          0  MISS:         30
cpu0_L2C PREFETCH  REQUESTED:          0  ISSUED:          0  USEFUL:          0  USELESS:          0
cpu0_L2C AVERAGE MISS LATENCY: 152.18 cycles
LLC TOTAL     ACCESS:    3798498  HIT:     156673  MISS:    3641825
LLC LOAD      ACCESS:    2789392  HIT:     140816  MISS:    2648576
LLC RFO       ACCESS:         20  HIT:         16  MISS:          4
LLC PREFETCH  ACCESS:          0  HIT:          0  MISS:          0
LLC WRITEBACK ACCESS:    1009056  HIT:      15827  MISS:     993229
LLC TRANSLATION ACCESS:         30  HIT:         14  MISS:         16
LLC PREFETCH  REQUESTED:          0  ISSUED:          0  USEFUL:          0  USELESS:          0
LLC AVERAGE MISS LATENCY: 100.475 cycles
OPTgen accesses: 47722
OPTgen hits: 726
OPTgen hit rate: 1.52131


Insertion Distribution: 
	LOAD 53712 0 74688 2784249 
	RFO 0 0 8 0 
	PREF 0 0 0 0 
	WRITEBACK 0 0 0 1111531 
	TRANSLATION 0 0 16 14 
Total Prefetch Downgrades: 0
DIP stats:
h_count: 3815178(0.911375)
s_count: 370999(0.0886248)
total: 4186177
hm_count: 62450
sm_count: 63104

DRAM Statistics
 CHANNEL 0
 RQ ROW_BUFFER_HIT:    1343673  ROW_BUFFER_MISS:    1304923
 DBUS AVG_CONGESTED_CYCLE:    3.74799
 WQ ROW_BUFFER_HIT:     332855  ROW_BUFFER_MISS:     668247  FULL:      14744


CPU 0 Branch Prediction Accuracy: 89.0086% MPKI: 24.5272 Average ROB Occupancy at Mispredict: 3.91519
Branch type MPKI
BRANCH_DIRECT_JUMP: 2e-05
BRANCH_INDIRECT: 0
BRANCH_CONDITIONAL: 24.527
BRANCH_DIRECT_CALL: 8e-05
BRANCH_INDIRECT_CALL: 0
BRANCH_RETURN: 8e-05

