
*** ChampSim Multicore Out-of-Order Simulator ***

Warmup Instructions: 10000000
Simulation Instructions: 100000000
Number of CPUs: 1
Off-chip DRAM Size: 4 GiB Channels: 1 Width: 64-bit Data Rate: 3200 MT/s

VirtualMemory physical capacity: 8588881920 num_ppages: 2096895
VirtualMemory page size: 4096 log2_page_size: 12

CPU 0 runs /datasets/cs240c-wi22-a00-public/data/Assignment2/gcc_13B.trace.xz
CPU 0 Bimodal branch predictor
Basic BTB sets: 1024 ways: 8 indirect buffer size: 4096 RAS size: 64
Initialize Hawkeye state
Initialize SRRIP state
Heartbeat CPU 0 instructions: 10000003 cycles: 2971571 heartbeat IPC: 3.36522 cumulative IPC: 3.36522 (Simulation time: 0 hr 0 min 28 sec) 

Warmup complete CPU 0 instructions: 10000003 cycles: 2971571 (Simulation time: 0 hr 0 min 28 sec) 

Heartbeat CPU 0 instructions: 20000003 cycles: 52496016 heartbeat IPC: 0.20192 cumulative IPC: 0.20192 (Simulation time: 0 hr 1 min 48 sec) 
Heartbeat CPU 0 instructions: 30000002 cycles: 108523149 heartbeat IPC: 0.178485 cumulative IPC: 0.189481 (Simulation time: 0 hr 3 min 20 sec) 
Heartbeat CPU 0 instructions: 40000004 cycles: 147376506 heartbeat IPC: 0.257378 cumulative IPC: 0.207749 (Simulation time: 0 hr 4 min 44 sec) 
Heartbeat CPU 0 instructions: 50000002 cycles: 165491119 heartbeat IPC: 0.55204 cumulative IPC: 0.246124 (Simulation time: 0 hr 5 min 14 sec) 
Heartbeat CPU 0 instructions: 60000003 cycles: 183482863 heartbeat IPC: 0.555811 cumulative IPC: 0.276991 (Simulation time: 0 hr 5 min 44 sec) 
Heartbeat CPU 0 instructions: 70000000 cycles: 201424318 heartbeat IPC: 0.557368 cumulative IPC: 0.302339 (Simulation time: 0 hr 6 min 13 sec) 
Heartbeat CPU 0 instructions: 80000002 cycles: 219160896 heartbeat IPC: 0.563807 cumulative IPC: 0.32379 (Simulation time: 0 hr 6 min 43 sec) 
Heartbeat CPU 0 instructions: 90000000 cycles: 237274662 heartbeat IPC: 0.552066 cumulative IPC: 0.341438 (Simulation time: 0 hr 7 min 12 sec) 
Heartbeat CPU 0 instructions: 100000000 cycles: 254901810 heartbeat IPC: 0.567307 cumulative IPC: 0.357242 (Simulation time: 0 hr 7 min 41 sec) 
Heartbeat CPU 0 instructions: 110000002 cycles: 278585193 heartbeat IPC: 0.422237 cumulative IPC: 0.362827 (Simulation time: 0 hr 8 min 15 sec) 
Finished CPU 0 instructions: 100000004 cycles: 275613623 cumulative IPC: 0.362827 (Simulation time: 0 hr 8 min 15 sec) 

ChampSim completed all CPUs

Region of Interest Statistics

CPU 0 cumulative IPC: 0.362827 instructions: 100000004 cycles: 275613623
cpu0_DTLB TOTAL     ACCESS:   19492697  HIT:   19390515  MISS:     102182
cpu0_DTLB LOAD      ACCESS:   14051138  HIT:   13963797  MISS:      87341
cpu0_DTLB RFO       ACCESS:    5441559  HIT:    5426718  MISS:      14841
cpu0_DTLB PREFETCH  ACCESS:          0  HIT:          0  MISS:          0
cpu0_DTLB WRITEBACK ACCESS:          0  HIT:          0  MISS:          0
cpu0_DTLB TRANSLATION ACCESS:          0  HIT:          0  MISS:          0
cpu0_DTLB PREFETCH  REQUESTED:          0  ISSUED:          0  USEFUL:          0  USELESS:          0
cpu0_DTLB AVERAGE MISS LATENCY: 30.0122 cycles
cpu0_ITLB TOTAL     ACCESS:   10353000  HIT:   10352939  MISS:         61
cpu0_ITLB LOAD      ACCESS:   10353000  HIT:   10352939  MISS:         61
cpu0_ITLB RFO       ACCESS:          0  HIT:          0  MISS:          0
cpu0_ITLB PREFETCH  ACCESS:          0  HIT:          0  MISS:          0
cpu0_ITLB WRITEBACK ACCESS:          0  HIT:          0  MISS:          0
cpu0_ITLB TRANSLATION ACCESS:          0  HIT:          0  MISS:          0
cpu0_ITLB PREFETCH  REQUESTED:          0  ISSUED:          0  USEFUL:          0  USELESS:          0
cpu0_ITLB AVERAGE MISS LATENCY: 143.852 cycles
cpu0_L1I TOTAL     ACCESS:    6565304  HIT:    6564932  MISS:        372
cpu0_L1I LOAD      ACCESS:    6565304  HIT:    6564932  MISS:        372
cpu0_L1I RFO       ACCESS:          0  HIT:          0  MISS:          0
cpu0_L1I PREFETCH  ACCESS:          0  HIT:          0  MISS:          0
cpu0_L1I WRITEBACK ACCESS:          0  HIT:          0  MISS:          0
cpu0_L1I TRANSLATION ACCESS:          0  HIT:          0  MISS:          0
cpu0_L1I PREFETCH  REQUESTED:          0  ISSUED:          0  USEFUL:          0  USELESS:          0
cpu0_L1I AVERAGE MISS LATENCY: 171.747 cycles
cpu0_STLB TOTAL     ACCESS:     102243  HIT:      33343  MISS:      68900
cpu0_STLB LOAD      ACCESS:      87402  HIT:      30383  MISS:      57019
cpu0_STLB RFO       ACCESS:      14841  HIT:       2960  MISS:      11881
cpu0_STLB PREFETCH  ACCESS:          0  HIT:          0  MISS:          0
cpu0_STLB WRITEBACK ACCESS:          0  HIT:          0  MISS:          0
cpu0_STLB TRANSLATION ACCESS:          0  HIT:          0  MISS:          0
cpu0_STLB PREFETCH  REQUESTED:          0  ISSUED:          0  USEFUL:          0  USELESS:          0
cpu0_STLB AVERAGE MISS LATENCY: 31.2754 cycles
cpu0_L1D TOTAL     ACCESS:   26288265  HIT:   24744505  MISS:    1543760
cpu0_L1D LOAD      ACCESS:   12799154  HIT:   11532463  MISS:    1266691
cpu0_L1D RFO       ACCESS:   13420406  HIT:   13144409  MISS:     275997
cpu0_L1D PREFETCH  ACCESS:          0  HIT:          0  MISS:          0
cpu0_L1D WRITEBACK ACCESS:          0  HIT:          0  MISS:          0
cpu0_L1D TRANSLATION ACCESS:      68705  HIT:      67633  MISS:       1072
cpu0_L1D PREFETCH  REQUESTED:          0  ISSUED:          0  USEFUL:          0  USELESS:          0
cpu0_L1D AVERAGE MISS LATENCY: 270.08 cycles
cpu0_L2C TOTAL     ACCESS:    1957020  HIT:     461955  MISS:    1495065
cpu0_L2C LOAD      ACCESS:    1267063  HIT:      46437  MISS:    1220626
cpu0_L2C RFO       ACCESS:     275997  HIT:       1818  MISS:     274179
cpu0_L2C PREFETCH  ACCESS:          0  HIT:          0  MISS:          0
cpu0_L2C WRITEBACK ACCESS:     412888  HIT:     412837  MISS:         51
cpu0_L2C TRANSLATION ACCESS:       1072  HIT:        863  MISS:        209
cpu0_L2C PREFETCH  REQUESTED:          0  ISSUED:          0  USEFUL:          0  USELESS:          0
cpu0_L2C AVERAGE MISS LATENCY: 267.528 cycles
LLC TOTAL     ACCESS:    1905608  HIT:     229359  MISS:    1676249
LLC LOAD      ACCESS:    1220626  HIT:     118560  MISS:    1102066
LLC RFO       ACCESS:     274179  HIT:      19717  MISS:     254462
LLC PREFETCH  ACCESS:          0  HIT:          0  MISS:          0
LLC WRITEBACK ACCESS:     410594  HIT:      90966  MISS:     319628
LLC TRANSLATION ACCESS:        209  HIT:        116  MISS:         93
LLC PREFETCH  REQUESTED:          0  ISSUED:          0  USEFUL:          0  USELESS:          0
LLC AVERAGE MISS LATENCY: 219.882 cycles
OPTgen accesses: 30444
OPTgen hits: 1659
OPTgen hit rate: 5.44935


Insertion Distribution: 
	LOAD 44625 0 140776 1190755 
	RFO 55268 0 61199 300402 
	PREF 0 0 0 0 
	WRITEBACK 0 0 0 468102 
	TRANSLATION 8 0 61 63 
Total Prefetch Downgrades: 0
DIP stats:
h_count: 1960345(0.748052)
s_count: 660254(0.251948)
total: 2620599
hm_count: 35459
sm_count: 35432

DRAM Statistics
 CHANNEL 0
 RQ ROW_BUFFER_HIT:     206689  ROW_BUFFER_MISS:    1149874
 DBUS AVG_CONGESTED_CYCLE:    3.94762
 WQ ROW_BUFFER_HIT:      44599  ROW_BUFFER_MISS:     365752  FULL:       4613


CPU 0 Branch Prediction Accuracy: 87.437% MPKI: 28.6507 Average ROB Occupancy at Mispredict: 19.8954
Branch type MPKI
BRANCH_DIRECT_JUMP: 0.0008
BRANCH_INDIRECT: 0.00403
BRANCH_CONDITIONAL: 28.6428
BRANCH_DIRECT_CALL: 0.00114
BRANCH_INDIRECT_CALL: 0.0008
BRANCH_RETURN: 0.00114

