
*** ChampSim Multicore Out-of-Order Simulator ***

Warmup Instructions: 10000000
Simulation Instructions: 100000000
Number of CPUs: 1
Off-chip DRAM Size: 4 GiB Channels: 1 Width: 64-bit Data Rate: 3200 MT/s

VirtualMemory physical capacity: 8588881920 num_ppages: 2096895
VirtualMemory page size: 4096 log2_page_size: 12

CPU 0 runs /datasets/cs240c-wi22-a00-public/data/Assignment2/milc_744B.trace.xz
CPU 0 Bimodal branch predictor
Basic BTB sets: 1024 ways: 8 indirect buffer size: 4096 RAS size: 64
Initialize Hawkeye state
Initialize SRRIP state
Heartbeat CPU 0 instructions: 10000000 cycles: 2597395 heartbeat IPC: 3.85001 cumulative IPC: 3.85001 (Simulation time: 0 hr 0 min 23 sec) 

Warmup complete CPU 0 instructions: 10000005 cycles: 2597401 (Simulation time: 0 hr 0 min 23 sec) 

Heartbeat CPU 0 instructions: 20000003 cycles: 16276248 heartbeat IPC: 0.731056 cumulative IPC: 0.731056 (Simulation time: 0 hr 1 min 4 sec) 
Heartbeat CPU 0 instructions: 30000000 cycles: 30004918 heartbeat IPC: 0.728402 cumulative IPC: 0.729727 (Simulation time: 0 hr 1 min 46 sec) 
Heartbeat CPU 0 instructions: 40000001 cycles: 43756243 heartbeat IPC: 0.727203 cumulative IPC: 0.728883 (Simulation time: 0 hr 2 min 29 sec) 
Heartbeat CPU 0 instructions: 50000000 cycles: 57490177 heartbeat IPC: 0.728123 cumulative IPC: 0.728693 (Simulation time: 0 hr 3 min 11 sec) 
Heartbeat CPU 0 instructions: 60000000 cycles: 71212057 heartbeat IPC: 0.728763 cumulative IPC: 0.728707 (Simulation time: 0 hr 3 min 53 sec) 
Heartbeat CPU 0 instructions: 70000004 cycles: 84987323 heartbeat IPC: 0.725939 cumulative IPC: 0.728244 (Simulation time: 0 hr 4 min 36 sec) 
Heartbeat CPU 0 instructions: 80000003 cycles: 98543000 heartbeat IPC: 0.737698 cumulative IPC: 0.72958 (Simulation time: 0 hr 5 min 19 sec) 
Heartbeat CPU 0 instructions: 90000002 cycles: 112226769 heartbeat IPC: 0.730793 cumulative IPC: 0.729731 (Simulation time: 0 hr 6 min 2 sec) 
Heartbeat CPU 0 instructions: 100000001 cycles: 146340322 heartbeat IPC: 0.293139 cumulative IPC: 0.626118 (Simulation time: 0 hr 10 min 21 sec) 
Heartbeat CPU 0 instructions: 110000004 cycles: 156511799 heartbeat IPC: 0.983142 cumulative IPC: 0.649712 (Simulation time: 0 hr 10 min 58 sec) 
Finished CPU 0 instructions: 100000004 cycles: 153914399 cumulative IPC: 0.649712 (Simulation time: 0 hr 10 min 58 sec) 

ChampSim completed all CPUs

Region of Interest Statistics

CPU 0 cumulative IPC: 0.649712 instructions: 100000004 cycles: 153914399
cpu0_DTLB TOTAL     ACCESS:   13559135  HIT:   13424351  MISS:     134784
cpu0_DTLB LOAD      ACCESS:   10515533  HIT:   10387376  MISS:     128157
cpu0_DTLB RFO       ACCESS:    3043602  HIT:    3036975  MISS:       6627
cpu0_DTLB PREFETCH  ACCESS:          0  HIT:          0  MISS:          0
cpu0_DTLB WRITEBACK ACCESS:          0  HIT:          0  MISS:          0
cpu0_DTLB TRANSLATION ACCESS:          0  HIT:          0  MISS:          0
cpu0_DTLB PREFETCH  REQUESTED:          0  ISSUED:          0  USEFUL:          0  USELESS:          0
cpu0_DTLB AVERAGE MISS LATENCY: 148.05 cycles
cpu0_ITLB TOTAL     ACCESS:    8135548  HIT:    8135543  MISS:          5
cpu0_ITLB LOAD      ACCESS:    8135548  HIT:    8135543  MISS:          5
cpu0_ITLB RFO       ACCESS:          0  HIT:          0  MISS:          0
cpu0_ITLB PREFETCH  ACCESS:          0  HIT:          0  MISS:          0
cpu0_ITLB WRITEBACK ACCESS:          0  HIT:          0  MISS:          0
cpu0_ITLB TRANSLATION ACCESS:          0  HIT:          0  MISS:          0
cpu0_ITLB PREFETCH  REQUESTED:          0  ISSUED:          0  USEFUL:          0  USELESS:          0
cpu0_ITLB AVERAGE MISS LATENCY: 219.2 cycles
cpu0_L1I TOTAL     ACCESS:     365359  HIT:     365312  MISS:         47
cpu0_L1I LOAD      ACCESS:     365359  HIT:     365312  MISS:         47
cpu0_L1I RFO       ACCESS:          0  HIT:          0  MISS:          0
cpu0_L1I PREFETCH  ACCESS:          0  HIT:          0  MISS:          0
cpu0_L1I WRITEBACK ACCESS:          0  HIT:          0  MISS:          0
cpu0_L1I TRANSLATION ACCESS:          0  HIT:          0  MISS:          0
cpu0_L1I PREFETCH  REQUESTED:          0  ISSUED:          0  USEFUL:          0  USELESS:          0
cpu0_L1I AVERAGE MISS LATENCY: 361.106 cycles
cpu0_STLB TOTAL     ACCESS:     134789  HIT:       2588  MISS:     132201
cpu0_STLB LOAD      ACCESS:     128162  HIT:       2578  MISS:     125584
cpu0_STLB RFO       ACCESS:       6627  HIT:         10  MISS:       6617
cpu0_STLB PREFETCH  ACCESS:          0  HIT:          0  MISS:          0
cpu0_STLB WRITEBACK ACCESS:          0  HIT:          0  MISS:          0
cpu0_STLB TRANSLATION ACCESS:          0  HIT:          0  MISS:          0
cpu0_STLB PREFETCH  REQUESTED:          0  ISSUED:          0  USEFUL:          0  USELESS:          0
cpu0_STLB AVERAGE MISS LATENCY: 141.764 cycles
cpu0_L1D TOTAL     ACCESS:   13086245  HIT:   11341308  MISS:    1744937
cpu0_L1D LOAD      ACCESS:    6797302  HIT:    5476049  MISS:    1321253
cpu0_L1D RFO       ACCESS:    6158010  HIT:    5734710  MISS:     423300
cpu0_L1D PREFETCH  ACCESS:          0  HIT:          0  MISS:          0
cpu0_L1D WRITEBACK ACCESS:          0  HIT:          0  MISS:          0
cpu0_L1D TRANSLATION ACCESS:     130933  HIT:     130549  MISS:        384
cpu0_L1D PREFETCH  REQUESTED:          0  ISSUED:          0  USEFUL:          0  USELESS:          0
cpu0_L1D AVERAGE MISS LATENCY: 416.459 cycles
cpu0_L2C TOTAL     ACCESS:    2446394  HIT:     701423  MISS:    1744971
cpu0_L2C LOAD      ACCESS:    1321300  HIT:          0  MISS:    1321300
cpu0_L2C RFO       ACCESS:     423300  HIT:          0  MISS:     423300
cpu0_L2C PREFETCH  ACCESS:          0  HIT:          0  MISS:          0
cpu0_L2C WRITEBACK ACCESS:     701410  HIT:     701404  MISS:          6
cpu0_L2C TRANSLATION ACCESS:        384  HIT:         19  MISS:        365
cpu0_L2C PREFETCH  REQUESTED:          0  ISSUED:          0  USEFUL:          0  USELESS:          0
cpu0_L2C AVERAGE MISS LATENCY: 405.393 cycles
LLC TOTAL     ACCESS:    2446271  HIT:      76250  MISS:    2370021
LLC LOAD      ACCESS:    1321300  HIT:       2067  MISS:    1319233
LLC RFO       ACCESS:     423300  HIT:       5417  MISS:     417883
LLC PREFETCH  ACCESS:          0  HIT:          0  MISS:          0
LLC WRITEBACK ACCESS:     701306  HIT:      68712  MISS:     632594
LLC TRANSLATION ACCESS:        365  HIT:         54  MISS:        311
LLC PREFETCH  REQUESTED:          0  ISSUED:          0  USEFUL:          0  USELESS:          0
LLC AVERAGE MISS LATENCY: 283.016 cycles
OPTgen accesses: 29494
OPTgen hits: 247
OPTgen hit rate: 0.837458


Insertion Distribution: 
	LOAD 0 0 69212 1390223 
	RFO 0 0 43567 374318 
	PREF 0 0 0 0 
	WRITEBACK 0 0 0 638928 
	TRANSLATION 0 0 26 320 
Total Prefetch Downgrades: 0
DIP stats:
h_count: 193997(0.0741971)
s_count: 2420621(0.925803)
total: 2614618
hm_count: 39831
sm_count: 39362

DRAM Statistics
 CHANNEL 0
 RQ ROW_BUFFER_HIT:     182802  ROW_BUFFER_MISS:    1554615
 DBUS AVG_CONGESTED_CYCLE:    3.95666
 WQ ROW_BUFFER_HIT:      82441  ROW_BUFFER_MISS:     611188  FULL:          0


CPU 0 Branch Prediction Accuracy: 77.9348% MPKI: 4.47835 Average ROB Occupancy at Mispredict: 302.965
Branch type MPKI
BRANCH_DIRECT_JUMP: 5e-05
BRANCH_INDIRECT: 0
BRANCH_CONDITIONAL: 4.47814
BRANCH_DIRECT_CALL: 8e-05
BRANCH_INDIRECT_CALL: 0
BRANCH_RETURN: 8e-05

