
*** ChampSim Multicore Out-of-Order Simulator ***

Warmup Instructions: 10000000
Simulation Instructions: 100000000
Number of CPUs: 1
Off-chip DRAM Size: 4 GiB Channels: 1 Width: 64-bit Data Rate: 3200 MT/s

VirtualMemory physical capacity: 8588881920 num_ppages: 2096895
VirtualMemory page size: 4096 log2_page_size: 12

CPU 0 runs /datasets/cs240c-wi22-a00-public/data/Assignment2/omnetpp_17B.trace.xz
CPU 0 Bimodal branch predictor
Basic BTB sets: 1024 ways: 8 indirect buffer size: 4096 RAS size: 64
Initialize Hawkeye state
Initialize SRRIP state
Heartbeat CPU 0 instructions: 10000002 cycles: 2500125 heartbeat IPC: 3.9998 cumulative IPC: 3.9998 (Simulation time: 0 hr 0 min 19 sec) 

Warmup complete CPU 0 instructions: 10000002 cycles: 2500125 (Simulation time: 0 hr 0 min 19 sec) 

Heartbeat CPU 0 instructions: 20000003 cycles: 8189143 heartbeat IPC: 1.75777 cumulative IPC: 1.75777 (Simulation time: 0 hr 0 min 45 sec) 
Heartbeat CPU 0 instructions: 30000000 cycles: 15001905 heartbeat IPC: 1.46783 cumulative IPC: 1.59977 (Simulation time: 0 hr 1 min 19 sec) 
Heartbeat CPU 0 instructions: 40000001 cycles: 21771320 heartbeat IPC: 1.47723 cumulative IPC: 1.55673 (Simulation time: 0 hr 1 min 54 sec) 
Heartbeat CPU 0 instructions: 50000001 cycles: 27634837 heartbeat IPC: 1.70546 cumulative IPC: 1.59142 (Simulation time: 0 hr 2 min 20 sec) 
Heartbeat CPU 0 instructions: 60000001 cycles: 33637487 heartbeat IPC: 1.66593 cumulative IPC: 1.60579 (Simulation time: 0 hr 2 min 47 sec) 
Heartbeat CPU 0 instructions: 70000000 cycles: 40325357 heartbeat IPC: 1.49524 cumulative IPC: 1.58624 (Simulation time: 0 hr 3 min 21 sec) 
Heartbeat CPU 0 instructions: 80000002 cycles: 47076449 heartbeat IPC: 1.48124 cumulative IPC: 1.57034 (Simulation time: 0 hr 3 min 55 sec) 
Heartbeat CPU 0 instructions: 90000003 cycles: 53777608 heartbeat IPC: 1.49228 cumulative IPC: 1.56014 (Simulation time: 0 hr 4 min 30 sec) 
Heartbeat CPU 0 instructions: 100000002 cycles: 59126588 heartbeat IPC: 1.86952 cumulative IPC: 1.58936 (Simulation time: 0 hr 4 min 54 sec) 
Heartbeat CPU 0 instructions: 110000001 cycles: 65750346 heartbeat IPC: 1.50972 cumulative IPC: 1.58102 (Simulation time: 0 hr 5 min 27 sec) 
Finished CPU 0 instructions: 100000004 cycles: 63250228 cumulative IPC: 1.58102 (Simulation time: 0 hr 5 min 27 sec) 

ChampSim completed all CPUs

Region of Interest Statistics

CPU 0 cumulative IPC: 1.58102 instructions: 100000004 cycles: 63250228
cpu0_DTLB TOTAL     ACCESS:   10203395  HIT:    9138593  MISS:    1064802
cpu0_DTLB LOAD      ACCESS:    8266173  HIT:    7203251  MISS:    1062922
cpu0_DTLB RFO       ACCESS:    1937222  HIT:    1935342  MISS:       1880
cpu0_DTLB PREFETCH  ACCESS:          0  HIT:          0  MISS:          0
cpu0_DTLB WRITEBACK ACCESS:          0  HIT:          0  MISS:          0
cpu0_DTLB TRANSLATION ACCESS:          0  HIT:          0  MISS:          0
cpu0_DTLB PREFETCH  REQUESTED:          0  ISSUED:          0  USEFUL:          0  USELESS:          0
cpu0_DTLB AVERAGE MISS LATENCY: 18.7269 cycles
cpu0_ITLB TOTAL     ACCESS:    8332729  HIT:    8330672  MISS:       2057
cpu0_ITLB LOAD      ACCESS:    8332729  HIT:    8330672  MISS:       2057
cpu0_ITLB RFO       ACCESS:          0  HIT:          0  MISS:          0
cpu0_ITLB PREFETCH  ACCESS:          0  HIT:          0  MISS:          0
cpu0_ITLB WRITEBACK ACCESS:          0  HIT:          0  MISS:          0
cpu0_ITLB TRANSLATION ACCESS:          0  HIT:          0  MISS:          0
cpu0_ITLB PREFETCH  REQUESTED:          0  ISSUED:          0  USEFUL:          0  USELESS:          0
cpu0_ITLB AVERAGE MISS LATENCY: 15.6315 cycles
cpu0_L1I TOTAL     ACCESS:    1054824  HIT:    1050485  MISS:       4339
cpu0_L1I LOAD      ACCESS:    1054824  HIT:    1050485  MISS:       4339
cpu0_L1I RFO       ACCESS:          0  HIT:          0  MISS:          0
cpu0_L1I PREFETCH  ACCESS:          0  HIT:          0  MISS:          0
cpu0_L1I WRITEBACK ACCESS:          0  HIT:          0  MISS:          0
cpu0_L1I TRANSLATION ACCESS:          0  HIT:          0  MISS:          0
cpu0_L1I PREFETCH  REQUESTED:          0  ISSUED:          0  USEFUL:          0  USELESS:          0
cpu0_L1I AVERAGE MISS LATENCY: 62.4432 cycles
cpu0_STLB TOTAL     ACCESS:    1066859  HIT:      12744  MISS:    1054115
cpu0_STLB LOAD      ACCESS:    1064979  HIT:      11380  MISS:    1053599
cpu0_STLB RFO       ACCESS:       1880  HIT:       1364  MISS:        516
cpu0_STLB PREFETCH  ACCESS:          0  HIT:          0  MISS:          0
cpu0_STLB WRITEBACK ACCESS:          0  HIT:          0  MISS:          0
cpu0_STLB TRANSLATION ACCESS:          0  HIT:          0  MISS:          0
cpu0_STLB PREFETCH  REQUESTED:          0  ISSUED:          0  USEFUL:          0  USELESS:          0
cpu0_STLB AVERAGE MISS LATENCY: 9.44406 cycles
cpu0_L1D TOTAL     ACCESS:   10306543  HIT:    8552103  MISS:    1754440
cpu0_L1D LOAD      ACCESS:    6453625  HIT:    4713336  MISS:    1740289
cpu0_L1D RFO       ACCESS:    3337151  HIT:    3324093  MISS:      13058
cpu0_L1D PREFETCH  ACCESS:          0  HIT:          0  MISS:          0
cpu0_L1D WRITEBACK ACCESS:          0  HIT:          0  MISS:          0
cpu0_L1D TRANSLATION ACCESS:     515767  HIT:     514674  MISS:       1093
cpu0_L1D PREFETCH  REQUESTED:          0  ISSUED:          0  USEFUL:          0  USELESS:          0
cpu0_L1D AVERAGE MISS LATENCY: 90.9937 cycles
cpu0_L2C TOTAL     ACCESS:    1775589  HIT:      23303  MISS:    1752286
cpu0_L2C LOAD      ACCESS:    1744628  HIT:       5922  MISS:    1738706
cpu0_L2C RFO       ACCESS:      13058  HIT:        137  MISS:      12921
cpu0_L2C PREFETCH  ACCESS:          0  HIT:          0  MISS:          0
cpu0_L2C WRITEBACK ACCESS:      16810  HIT:      16810  MISS:          0
cpu0_L2C TRANSLATION ACCESS:       1093  HIT:        434  MISS:        659
cpu0_L2C PREFETCH  REQUESTED:          0  ISSUED:          0  USEFUL:          0  USELESS:          0
cpu0_L2C AVERAGE MISS LATENCY: 79.6351 cycles
LLC TOTAL     ACCESS:    1768992  HIT:    1480307  MISS:     288685
LLC LOAD      ACCESS:    1738706  HIT:    1466811  MISS:     271895
LLC RFO       ACCESS:      12921  HIT:       2595  MISS:      10326
LLC PREFETCH  ACCESS:          0  HIT:          0  MISS:          0
LLC WRITEBACK ACCESS:      16706  HIT:      10338  MISS:       6368
LLC TRANSLATION ACCESS:        659  HIT:        563  MISS:         96
LLC PREFETCH  REQUESTED:          0  ISSUED:          0  USEFUL:          0  USELESS:          0
LLC AVERAGE MISS LATENCY: 355.836 cycles
OPTgen accesses: 29542
OPTgen hits: 23373
OPTgen hit rate: 79.1179


Insertion Distribution: 
	LOAD 21362 0 64291 268542 
	RFO 0 0 1773 9629 
	PREF 0 0 0 0 
	WRITEBACK 0 0 0 6486 
	TRANSLATION 2 0 113 23 
Total Prefetch Downgrades: 0
DIP stats:
h_count: 84650(0.0429541)
s_count: 1886059(0.957046)
total: 1970709
hm_count: 11735
sm_count: 6021

DRAM Statistics
 CHANNEL 0
 RQ ROW_BUFFER_HIT:       7325  ROW_BUFFER_MISS:     274939
 DBUS AVG_CONGESTED_CYCLE:    3.96669
 WQ ROW_BUFFER_HIT:       3152  ROW_BUFFER_MISS:       8497  FULL:        114


CPU 0 Branch Prediction Accuracy: 97.6159% MPKI: 7.87238 Average ROB Occupancy at Mispredict: 63.3173
Branch type MPKI
BRANCH_DIRECT_JUMP: 0.00032
BRANCH_INDIRECT: 0.08474
BRANCH_CONDITIONAL: 7.75802
BRANCH_DIRECT_CALL: 0.00068
BRANCH_INDIRECT_CALL: 0.00292
BRANCH_RETURN: 0.0257

