
*** ChampSim Multicore Out-of-Order Simulator ***

Warmup Instructions: 10000000
Simulation Instructions: 100000000
Number of CPUs: 1
Off-chip DRAM Size: 4 GiB Channels: 1 Width: 64-bit Data Rate: 3200 MT/s

VirtualMemory physical capacity: 8588881920 num_ppages: 2096895
VirtualMemory page size: 4096 log2_page_size: 12

CPU 0 runs /datasets/cs240c-wi22-a00-public/data/Assignment2/wrf_1228B.trace.xz
CPU 0 Bimodal branch predictor
Basic BTB sets: 1024 ways: 8 indirect buffer size: 4096 RAS size: 64
Initialize Hawkeye state
Initialize SRRIP state
Heartbeat CPU 0 instructions: 10000001 cycles: 3904459 heartbeat IPC: 2.56117 cumulative IPC: 2.56117 (Simulation time: 0 hr 0 min 35 sec) 

Warmup complete CPU 0 instructions: 10000001 cycles: 3904459 (Simulation time: 0 hr 0 min 35 sec) 

Heartbeat CPU 0 instructions: 20000001 cycles: 12593868 heartbeat IPC: 1.15083 cumulative IPC: 1.15083 (Simulation time: 0 hr 1 min 24 sec) 
Heartbeat CPU 0 instructions: 30000003 cycles: 23920165 heartbeat IPC: 0.882901 cumulative IPC: 0.999215 (Simulation time: 0 hr 2 min 24 sec) 
Heartbeat CPU 0 instructions: 40000000 cycles: 37361799 heartbeat IPC: 0.743957 cumulative IPC: 0.896664 (Simulation time: 0 hr 3 min 35 sec) 
Heartbeat CPU 0 instructions: 50000001 cycles: 45315760 heartbeat IPC: 1.25724 cumulative IPC: 0.96592 (Simulation time: 0 hr 4 min 22 sec) 
Heartbeat CPU 0 instructions: 60000003 cycles: 55202747 heartbeat IPC: 1.01143 cumulative IPC: 0.974691 (Simulation time: 0 hr 5 min 17 sec) 
Heartbeat CPU 0 instructions: 70000001 cycles: 66568855 heartbeat IPC: 0.879808 cumulative IPC: 0.957482 (Simulation time: 0 hr 6 min 10 sec) 
Heartbeat CPU 0 instructions: 80000004 cycles: 76278848 heartbeat IPC: 1.02987 cumulative IPC: 0.967193 (Simulation time: 0 hr 6 min 52 sec) 
Heartbeat CPU 0 instructions: 90000001 cycles: 85963848 heartbeat IPC: 1.03252 cumulative IPC: 0.974904 (Simulation time: 0 hr 7 min 33 sec) 
Heartbeat CPU 0 instructions: 100000002 cycles: 95642188 heartbeat IPC: 1.03324 cumulative IPC: 0.981058 (Simulation time: 0 hr 8 min 15 sec) 
Heartbeat CPU 0 instructions: 110000000 cycles: 105312351 heartbeat IPC: 1.03411 cumulative IPC: 0.986117 (Simulation time: 0 hr 8 min 57 sec) 
Finished CPU 0 instructions: 100000004 cycles: 101407893 cumulative IPC: 0.986117 (Simulation time: 0 hr 8 min 57 sec) 

ChampSim completed all CPUs

Region of Interest Statistics

CPU 0 cumulative IPC: 0.986117 instructions: 100000004 cycles: 101407893
cpu0_DTLB TOTAL     ACCESS:   19652667  HIT:   19556430  MISS:      96237
cpu0_DTLB LOAD      ACCESS:   17647196  HIT:   17565266  MISS:      81930
cpu0_DTLB RFO       ACCESS:    2005471  HIT:    1991164  MISS:      14307
cpu0_DTLB PREFETCH  ACCESS:          0  HIT:          0  MISS:          0
cpu0_DTLB WRITEBACK ACCESS:          0  HIT:          0  MISS:          0
cpu0_DTLB TRANSLATION ACCESS:          0  HIT:          0  MISS:          0
cpu0_DTLB PREFETCH  REQUESTED:          0  ISSUED:          0  USEFUL:          0  USELESS:          0
cpu0_DTLB AVERAGE MISS LATENCY: 20.029 cycles
cpu0_ITLB TOTAL     ACCESS:    4189914  HIT:    4189902  MISS:         12
cpu0_ITLB LOAD      ACCESS:    4189914  HIT:    4189902  MISS:         12
cpu0_ITLB RFO       ACCESS:          0  HIT:          0  MISS:          0
cpu0_ITLB PREFETCH  ACCESS:          0  HIT:          0  MISS:          0
cpu0_ITLB WRITEBACK ACCESS:          0  HIT:          0  MISS:          0
cpu0_ITLB TRANSLATION ACCESS:          0  HIT:          0  MISS:          0
cpu0_ITLB PREFETCH  REQUESTED:          0  ISSUED:          0  USEFUL:          0  USELESS:          0
cpu0_ITLB AVERAGE MISS LATENCY: 220.583 cycles
cpu0_L1I TOTAL     ACCESS:    6667795  HIT:    6667047  MISS:        748
cpu0_L1I LOAD      ACCESS:    6667795  HIT:    6667047  MISS:        748
cpu0_L1I RFO       ACCESS:          0  HIT:          0  MISS:          0
cpu0_L1I PREFETCH  ACCESS:          0  HIT:          0  MISS:          0
cpu0_L1I WRITEBACK ACCESS:          0  HIT:          0  MISS:          0
cpu0_L1I TRANSLATION ACCESS:          0  HIT:          0  MISS:          0
cpu0_L1I PREFETCH  REQUESTED:          0  ISSUED:          0  USEFUL:          0  USELESS:          0
cpu0_L1I AVERAGE MISS LATENCY: 334.595 cycles
cpu0_STLB TOTAL     ACCESS:      96249  HIT:      86695  MISS:       9554
cpu0_STLB LOAD      ACCESS:      81942  HIT:      75034  MISS:       6908
cpu0_STLB RFO       ACCESS:      14307  HIT:      11661  MISS:       2646
cpu0_STLB PREFETCH  ACCESS:          0  HIT:          0  MISS:          0
cpu0_STLB WRITEBACK ACCESS:          0  HIT:          0  MISS:          0
cpu0_STLB TRANSLATION ACCESS:          0  HIT:          0  MISS:          0
cpu0_STLB PREFETCH  REQUESTED:          0  ISSUED:          0  USEFUL:          0  USELESS:          0
cpu0_STLB AVERAGE MISS LATENCY: 111.341 cycles
cpu0_L1D TOTAL     ACCESS:   18906924  HIT:   17548535  MISS:    1358389
cpu0_L1D LOAD      ACCESS:   14858844  HIT:   13759795  MISS:    1099049
cpu0_L1D RFO       ACCESS:    4038535  HIT:    3779982  MISS:     258553
cpu0_L1D PREFETCH  ACCESS:          0  HIT:          0  MISS:          0
cpu0_L1D WRITEBACK ACCESS:          0  HIT:          0  MISS:          0
cpu0_L1D TRANSLATION ACCESS:       9545  HIT:       8758  MISS:        787
cpu0_L1D PREFETCH  REQUESTED:          0  ISSUED:          0  USEFUL:          0  USELESS:          0
cpu0_L1D AVERAGE MISS LATENCY: 208.183 cycles
cpu0_L2C TOTAL     ACCESS:    1836329  HIT:     802893  MISS:    1033436
cpu0_L2C LOAD      ACCESS:    1099766  HIT:     287144  MISS:     812622
cpu0_L2C RFO       ACCESS:     258548  HIT:      39530  MISS:     219018
cpu0_L2C PREFETCH  ACCESS:          0  HIT:          0  MISS:          0
cpu0_L2C WRITEBACK ACCESS:     477228  HIT:     475545  MISS:       1683
cpu0_L2C TRANSLATION ACCESS:        787  HIT:        674  MISS:        113
cpu0_L2C PREFETCH  REQUESTED:          0  ISSUED:          0  USEFUL:          0  USELESS:          0
cpu0_L2C AVERAGE MISS LATENCY: 259.397 cycles
LLC TOTAL     ACCESS:    1463806  HIT:     514061  MISS:     949745
LLC LOAD      ACCESS:     812622  HIT:     188576  MISS:     624046
LLC RFO       ACCESS:     219018  HIT:      41797  MISS:     177221
LLC PREFETCH  ACCESS:          0  HIT:          0  MISS:          0
LLC WRITEBACK ACCESS:     432053  HIT:     283638  MISS:     148415
LLC TRANSLATION ACCESS:        113  HIT:         50  MISS:         63
LLC PREFETCH  REQUESTED:          0  ISSUED:          0  USEFUL:          0  USELESS:          0
LLC AVERAGE MISS LATENCY: 259.44 cycles
OPTgen accesses: 20219
OPTgen hits: 2164
OPTgen hit rate: 10.7028


Insertion Distribution: 
	LOAD 36068 0 123621 626322 
	RFO 65911 0 60194 126072 
	PREF 0 0 0 0 
	WRITEBACK 0 0 0 203530 
	 4 0 53 33 
Total Prefetch Downgrades: 0
DIP stats:
h_count: 1036057(0.5626)
s_count: 805495(0.4374)
total: 1841552
hm_count: 19363
sm_count: 19888

DRAM Statistics
 CHANNEL 0
 RQ ROW_BUFFER_HIT:     104536  ROW_BUFFER_MISS:     696163
 DBUS AVG_CONGESTED_CYCLE:    3.93072
 WQ ROW_BUFFER_HIT:      24180  ROW_BUFFER_MISS:     276879  FULL:       4492


CPU 0 Branch Prediction Accuracy: 97.4481% MPKI: 2.04611 Average ROB Occupancy at Mispredict: 261.248
Branch type MPKI
BRANCH_DIRECT_JUMP: 0.00028
BRANCH_INDIRECT: 0
BRANCH_CONDITIONAL: 2.0456
BRANCH_DIRECT_CALL: 0.00011
BRANCH_INDIRECT_CALL: 0
BRANCH_RETURN: 0.00012

