
*** ChampSim Multicore Out-of-Order Simulator ***

Warmup Instructions: 10000000
Simulation Instructions: 100000000
Number of CPUs: 1
Off-chip DRAM Size: 4 GiB Channels: 1 Width: 64-bit Data Rate: 3200 MT/s

VirtualMemory physical capacity: 8588881920 num_ppages: 2096895
VirtualMemory page size: 4096 log2_page_size: 12

CPU 0 runs /datasets/cs240c-wi22-a00-public/data/Assignment2/cactusADM_1495B.trace.xz
CPU 0 Bimodal branch predictor
Basic BTB sets: 1024 ways: 8 indirect buffer size: 4096 RAS size: 64
Initialize Hawkeye state
Initialize SRRIP state
Heartbeat CPU 0 instructions: 10000001 cycles: 3702121 heartbeat IPC: 2.70115 cumulative IPC: 2.70115 (Simulation time: 0 hr 0 min 36 sec) 

Warmup complete CPU 0 instructions: 10000001 cycles: 3702121 (Simulation time: 0 hr 0 min 36 sec) 

Heartbeat CPU 0 instructions: 20000001 cycles: 11185257 heartbeat IPC: 1.33634 cumulative IPC: 1.33634 (Simulation time: 0 hr 1 min 33 sec) 
Heartbeat CPU 0 instructions: 30000003 cycles: 20057584 heartbeat IPC: 1.1271 cumulative IPC: 1.22283 (Simulation time: 0 hr 2 min 33 sec) 
Heartbeat CPU 0 instructions: 40000003 cycles: 29176536 heartbeat IPC: 1.09662 cumulative IPC: 1.17765 (Simulation time: 0 hr 3 min 34 sec) 
Heartbeat CPU 0 instructions: 50000000 cycles: 37851940 heartbeat IPC: 1.15268 cumulative IPC: 1.17131 (Simulation time: 0 hr 4 min 34 sec) 
Heartbeat CPU 0 instructions: 60000000 cycles: 44832837 heartbeat IPC: 1.43248 cumulative IPC: 1.21564 (Simulation time: 0 hr 5 min 28 sec) 
Heartbeat CPU 0 instructions: 70000000 cycles: 52506752 heartbeat IPC: 1.30312 cumulative IPC: 1.22939 (Simulation time: 0 hr 6 min 24 sec) 
Heartbeat CPU 0 instructions: 80000001 cycles: 61052801 heartbeat IPC: 1.17013 cumulative IPC: 1.22056 (Simulation time: 0 hr 7 min 22 sec) 
Heartbeat CPU 0 instructions: 90000002 cycles: 69545232 heartbeat IPC: 1.17752 cumulative IPC: 1.21501 (Simulation time: 0 hr 8 min 21 sec) 
Heartbeat CPU 0 instructions: 100000003 cycles: 78018499 heartbeat IPC: 1.18018 cumulative IPC: 1.21104 (Simulation time: 0 hr 9 min 19 sec) 
Heartbeat CPU 0 instructions: 110000001 cycles: 83814197 heartbeat IPC: 1.72542 cumulative IPC: 1.24825 (Simulation time: 0 hr 10 min 8 sec) 
Finished CPU 0 instructions: 100000000 cycles: 80112076 cumulative IPC: 1.24825 (Simulation time: 0 hr 10 min 8 sec) 

ChampSim completed all CPUs

Region of Interest Statistics

CPU 0 cumulative IPC: 1.24825 instructions: 100000000 cycles: 80112076
cpu0_DTLB TOTAL     ACCESS:   21457213  HIT:   19684565  MISS:    1772648
cpu0_DTLB LOAD      ACCESS:   17641900  HIT:   16432598  MISS:    1209302
cpu0_DTLB RFO       ACCESS:    3815313  HIT:    3251967  MISS:     563346
cpu0_DTLB PREFETCH  ACCESS:          0  HIT:          0  MISS:          0
cpu0_DTLB WRITEBACK ACCESS:          0  HIT:          0  MISS:          0
cpu0_DTLB TRANSLATION ACCESS:          0  HIT:          0  MISS:          0
cpu0_DTLB PREFETCH  REQUESTED:          0  ISSUED:          0  USEFUL:          0  USELESS:          0
cpu0_DTLB AVERAGE MISS LATENCY: 16.8875 cycles
cpu0_ITLB TOTAL     ACCESS:    1615646  HIT:    1615646  MISS:          0
cpu0_ITLB LOAD      ACCESS:    1615646  HIT:    1615646  MISS:          0
cpu0_ITLB RFO       ACCESS:          0  HIT:          0  MISS:          0
cpu0_ITLB PREFETCH  ACCESS:          0  HIT:          0  MISS:          0
cpu0_ITLB WRITEBACK ACCESS:          0  HIT:          0  MISS:          0
cpu0_ITLB TRANSLATION ACCESS:          0  HIT:          0  MISS:          0
cpu0_ITLB PREFETCH  REQUESTED:          0  ISSUED:          0  USEFUL:          0  USELESS:          0
cpu0_ITLB AVERAGE MISS LATENCY: -nan cycles
cpu0_L1I TOTAL     ACCESS:    8429644  HIT:    8429644  MISS:          0
cpu0_L1I LOAD      ACCESS:    8429644  HIT:    8429644  MISS:          0
cpu0_L1I RFO       ACCESS:          0  HIT:          0  MISS:          0
cpu0_L1I PREFETCH  ACCESS:          0  HIT:          0  MISS:          0
cpu0_L1I WRITEBACK ACCESS:          0  HIT:          0  MISS:          0
cpu0_L1I TRANSLATION ACCESS:          0  HIT:          0  MISS:          0
cpu0_L1I PREFETCH  REQUESTED:          0  ISSUED:          0  USEFUL:          0  USELESS:          0
cpu0_L1I AVERAGE MISS LATENCY: -nan cycles
cpu0_STLB TOTAL     ACCESS:    1772648  HIT:     908845  MISS:     863803
cpu0_STLB LOAD      ACCESS:    1209302  HIT:     650510  MISS:     558792
cpu0_STLB RFO       ACCESS:     563346  HIT:     258335  MISS:     305011
cpu0_STLB PREFETCH  ACCESS:          0  HIT:          0  MISS:          0
cpu0_STLB WRITEBACK ACCESS:          0  HIT:          0  MISS:          0
cpu0_STLB TRANSLATION ACCESS:          0  HIT:          0  MISS:          0
cpu0_STLB PREFETCH  REQUESTED:          0  ISSUED:          0  USEFUL:          0  USELESS:          0
cpu0_STLB AVERAGE MISS LATENCY: 16.0617 cycles
cpu0_L1D TOTAL     ACCESS:   37484191  HIT:   36196051  MISS:    1288140
cpu0_L1D LOAD      ACCESS:   25699902  HIT:   24663926  MISS:    1035976
cpu0_L1D RFO       ACCESS:   10921165  HIT:   10675933  MISS:     245232
cpu0_L1D PREFETCH  ACCESS:          0  HIT:          0  MISS:          0
cpu0_L1D WRITEBACK ACCESS:          0  HIT:          0  MISS:          0
cpu0_L1D TRANSLATION ACCESS:     863124  HIT:     856192  MISS:       6932
cpu0_L1D PREFETCH  REQUESTED:          0  ISSUED:          0  USEFUL:          0  USELESS:          0
cpu0_L1D AVERAGE MISS LATENCY: 281.363 cycles
cpu0_L2C TOTAL     ACCESS:    1536922  HIT:     676763  MISS:     860159
cpu0_L2C LOAD      ACCESS:    1035976  HIT:     421555  MISS:     614421
cpu0_L2C RFO       ACCESS:     245232  HIT:          0  MISS:     245232
cpu0_L2C PREFETCH  ACCESS:          0  HIT:          0  MISS:          0
cpu0_L2C WRITEBACK ACCESS:     248782  HIT:     248594  MISS:        188
cpu0_L2C TRANSLATION ACCESS:       6932  HIT:       6614  MISS:        318
cpu0_L2C PREFETCH  REQUESTED:          0  ISSUED:          0  USEFUL:          0  USELESS:          0
cpu0_L2C AVERAGE MISS LATENCY: 404.866 cycles
LLC TOTAL     ACCESS:    1105579  HIT:     335747  MISS:     769832
LLC LOAD      ACCESS:     614421  HIT:     180218  MISS:     434203
LLC RFO       ACCESS:     245232  HIT:      64759  MISS:     180473
LLC PREFETCH  ACCESS:          0  HIT:          0  MISS:          0
LLC WRITEBACK ACCESS:     245608  HIT:      90738  MISS:     154870
LLC TRANSLATION ACCESS:        318  HIT:         32  MISS:        286
LLC PREFETCH  REQUESTED:          0  ISSUED:          0  USEFUL:          0  USELESS:          0
LLC AVERAGE MISS LATENCY: 428.91 cycles
OPTgen accesses: 15005
OPTgen hits: 1414
OPTgen hit rate: 9.42353


Insertion Distribution: 
	LOAD 27824 0 65851 407716 
	RFO 19846 0 24126 166993 
	PREF 0 0 0 0 
	WRITEBACK 0 0 0 163907 
	TRANSLATION 0 0 71 265 
Total Prefetch Downgrades: 0
DIP stats:
h_count: 99805(0.0807734)
s_count: 1135812(0.919227)
total: 1235617
hm_count: 14307
sm_count: 13651

DRAM Statistics
 CHANNEL 0
 RQ ROW_BUFFER_HIT:       5650  ROW_BUFFER_MISS:     609307
 DBUS AVG_CONGESTED_CYCLE:    3.97727
 WQ ROW_BUFFER_HIT:      14757  ROW_BUFFER_MISS:     185957  FULL:        558


CPU 0 Branch Prediction Accuracy: 97.8411% MPKI: 0.04284 Average ROB Occupancy at Mispredict: 285.584
Branch type MPKI
BRANCH_DIRECT_JUMP: 0
BRANCH_INDIRECT: 0
BRANCH_CONDITIONAL: 0.04284
BRANCH_DIRECT_CALL: 0
BRANCH_INDIRECT_CALL: 0
BRANCH_RETURN: 0

