
*** ChampSim Multicore Out-of-Order Simulator ***

Warmup Instructions: 10000000
Simulation Instructions: 100000000
Number of CPUs: 1
Off-chip DRAM Size: 4 GiB Channels: 1 Width: 64-bit Data Rate: 3200 MT/s

VirtualMemory physical capacity: 8588881920 num_ppages: 2096895
VirtualMemory page size: 4096 log2_page_size: 12

CPU 0 runs /datasets/cs240c-wi22-a00-public/data/Assignment2/leslie3d_1186B.trace.xz
CPU 0 Bimodal branch predictor
Basic BTB sets: 1024 ways: 8 indirect buffer size: 4096 RAS size: 64
Initialize Hawkeye state
Initialize SRRIP state
Heartbeat CPU 0 instructions: 10000000 cycles: 4308755 heartbeat IPC: 2.32086 cumulative IPC: 2.32086 (Simulation time: 0 hr 0 min 43 sec) 

Warmup complete CPU 0 instructions: 10000002 cycles: 4308756 (Simulation time: 0 hr 0 min 43 sec) 

Heartbeat CPU 0 instructions: 20000000 cycles: 17682918 heartbeat IPC: 0.74771 cumulative IPC: 0.74771 (Simulation time: 0 hr 1 min 57 sec) 
Heartbeat CPU 0 instructions: 30000000 cycles: 30812620 heartbeat IPC: 0.761632 cumulative IPC: 0.754607 (Simulation time: 0 hr 3 min 9 sec) 
Heartbeat CPU 0 instructions: 40000004 cycles: 43475402 heartbeat IPC: 0.789716 cumulative IPC: 0.765958 (Simulation time: 0 hr 4 min 20 sec) 
Heartbeat CPU 0 instructions: 50000001 cycles: 59609685 heartbeat IPC: 0.619798 cumulative IPC: 0.723315 (Simulation time: 0 hr 5 min 37 sec) 
Heartbeat CPU 0 instructions: 60000000 cycles: 95275777 heartbeat IPC: 0.280378 cumulative IPC: 0.54965 (Simulation time: 0 hr 8 min 0 sec) 
Heartbeat CPU 0 instructions: 70000000 cycles: 124239280 heartbeat IPC: 0.345262 cumulative IPC: 0.50029 (Simulation time: 0 hr 10 min 2 sec) 
Heartbeat CPU 0 instructions: 80000003 cycles: 134610019 heartbeat IPC: 0.964252 cumulative IPC: 0.537217 (Simulation time: 0 hr 11 min 5 sec) 
Heartbeat CPU 0 instructions: 90000002 cycles: 144874215 heartbeat IPC: 0.97426 cumulative IPC: 0.56913 (Simulation time: 0 hr 12 min 8 sec) 
Heartbeat CPU 0 instructions: 100000000 cycles: 155172830 heartbeat IPC: 0.971004 cumulative IPC: 0.596563 (Simulation time: 0 hr 13 min 12 sec) 
Heartbeat CPU 0 instructions: 110000000 cycles: 165456236 heartbeat IPC: 0.97244 cumulative IPC: 0.62055 (Simulation time: 0 hr 14 min 15 sec) 
Finished CPU 0 instructions: 100000003 cycles: 161147481 cumulative IPC: 0.62055 (Simulation time: 0 hr 14 min 15 sec) 

ChampSim completed all CPUs

Region of Interest Statistics

CPU 0 cumulative IPC: 0.62055 instructions: 100000003 cycles: 161147481
cpu0_DTLB TOTAL     ACCESS:   27973123  HIT:   27875489  MISS:      97634
cpu0_DTLB LOAD      ACCESS:   23307894  HIT:   23222011  MISS:      85883
cpu0_DTLB RFO       ACCESS:    4665229  HIT:    4653478  MISS:      11751
cpu0_DTLB PREFETCH  ACCESS:          0  HIT:          0  MISS:          0
cpu0_DTLB WRITEBACK ACCESS:          0  HIT:          0  MISS:          0
cpu0_DTLB TRANSLATION ACCESS:          0  HIT:          0  MISS:          0
cpu0_DTLB PREFETCH  REQUESTED:          0  ISSUED:          0  USEFUL:          0  USELESS:          0
cpu0_DTLB AVERAGE MISS LATENCY: 52.9504 cycles
cpu0_ITLB TOTAL     ACCESS:    2896138  HIT:    2896125  MISS:         13
cpu0_ITLB LOAD      ACCESS:    2896138  HIT:    2896125  MISS:         13
cpu0_ITLB RFO       ACCESS:          0  HIT:          0  MISS:          0
cpu0_ITLB PREFETCH  ACCESS:          0  HIT:          0  MISS:          0
cpu0_ITLB WRITEBACK ACCESS:          0  HIT:          0  MISS:          0
cpu0_ITLB TRANSLATION ACCESS:          0  HIT:          0  MISS:          0
cpu0_ITLB PREFETCH  REQUESTED:          0  ISSUED:          0  USEFUL:          0  USELESS:          0
cpu0_ITLB AVERAGE MISS LATENCY: 288.385 cycles
cpu0_L1I TOTAL     ACCESS:    1736359  HIT:    1735979  MISS:        380
cpu0_L1I LOAD      ACCESS:    1736359  HIT:    1735979  MISS:        380
cpu0_L1I RFO       ACCESS:          0  HIT:          0  MISS:          0
cpu0_L1I PREFETCH  ACCESS:          0  HIT:          0  MISS:          0
cpu0_L1I WRITEBACK ACCESS:          0  HIT:          0  MISS:          0
cpu0_L1I TRANSLATION ACCESS:          0  HIT:          0  MISS:          0
cpu0_L1I PREFETCH  REQUESTED:          0  ISSUED:          0  USEFUL:          0  USELESS:          0
cpu0_L1I AVERAGE MISS LATENCY: 324.368 cycles
cpu0_STLB TOTAL     ACCESS:      97647  HIT:      70245  MISS:      27402
cpu0_STLB LOAD      ACCESS:      85896  HIT:      63169  MISS:      22727
cpu0_STLB RFO       ACCESS:      11751  HIT:       7076  MISS:       4675
cpu0_STLB PREFETCH  ACCESS:          0  HIT:          0  MISS:          0
cpu0_STLB WRITEBACK ACCESS:          0  HIT:          0  MISS:          0
cpu0_STLB TRANSLATION ACCESS:          0  HIT:          0  MISS:          0
cpu0_STLB PREFETCH  REQUESTED:          0  ISSUED:          0  USEFUL:          0  USELESS:          0
cpu0_STLB AVERAGE MISS LATENCY: 156.674 cycles
cpu0_L1D TOTAL     ACCESS:   27037036  HIT:   23134208  MISS:    3902828
cpu0_L1D LOAD      ACCESS:   17813196  HIT:   14629353  MISS:    3183843
cpu0_L1D RFO       ACCESS:    9199310  HIT:    8483766  MISS:     715544
cpu0_L1D PREFETCH  ACCESS:          0  HIT:          0  MISS:          0
cpu0_L1D WRITEBACK ACCESS:          0  HIT:          0  MISS:          0
cpu0_L1D TRANSLATION ACCESS:      24530  HIT:      21089  MISS:       3441
cpu0_L1D PREFETCH  REQUESTED:          0  ISSUED:          0  USEFUL:          0  USELESS:          0
cpu0_L1D AVERAGE MISS LATENCY: 350.184 cycles
cpu0_L2C TOTAL     ACCESS:    4956320  HIT:    2399221  MISS:    2557099
cpu0_L2C LOAD      ACCESS:    3184172  HIT:    1037158  MISS:    2147014
cpu0_L2C RFO       ACCESS:     715227  HIT:     307559  MISS:     407668
cpu0_L2C PREFETCH  ACCESS:          0  HIT:          0  MISS:          0
cpu0_L2C WRITEBACK ACCESS:    1053480  HIT:    1051274  MISS:       2206
cpu0_L2C TRANSLATION ACCESS:       3441  HIT:       3230  MISS:        211
cpu0_L2C PREFETCH  REQUESTED:          0  ISSUED:          0  USEFUL:          0  USELESS:          0
cpu0_L2C AVERAGE MISS LATENCY: 517.677 cycles
LLC TOTAL     ACCESS:    3217219  HIT:     876291  MISS:    2340928
LLC LOAD      ACCESS:    2147002  HIT:     560994  MISS:    1586008
LLC RFO       ACCESS:     407656  HIT:     113952  MISS:     293704
LLC PREFETCH  ACCESS:          0  HIT:          0  MISS:          0
LLC WRITEBACK ACCESS:     662350  HIT:     201265  MISS:     461085
LLC TRANSLATION ACCESS:        211  HIT:         80  MISS:        131
LLC PREFETCH  REQUESTED:          0  ISSUED:          0  USEFUL:          0  USELESS:          0
LLC AVERAGE MISS LATENCY: 542.518 cycles
OPTgen accesses: 43411
OPTgen hits: 9573
OPTgen hit rate: 22.052


Insertion Distribution: 
	LOAD 189643 0 250693 1314998 
	RFO 4514 0 18554 273750 
	PREF 0 0 0 0 
	WRITEBACK 0 0 0 479783 
	TRANSLATION 12 0 42 96 
Total Prefetch Downgrades: 0
DIP stats:
h_count: 3271641(0.934709)
s_count: 228531(0.0652914)
total: 3500172
hm_count: 39477
sm_count: 40313

DRAM Statistics
 CHANNEL 0
 RQ ROW_BUFFER_HIT:     211751  ROW_BUFFER_MISS:    1667949
 DBUS AVG_CONGESTED_CYCLE:    3.95077
 WQ ROW_BUFFER_HIT:      38950  ROW_BUFFER_MISS:     498644  FULL:      21848


CPU 0 Branch Prediction Accuracy: 96.8384% MPKI: 1.47634 Average ROB Occupancy at Mispredict: 312
Branch type MPKI
BRANCH_DIRECT_JUMP: 0.00016
BRANCH_INDIRECT: 0
BRANCH_CONDITIONAL: 1.47504
BRANCH_DIRECT_CALL: 0.00057
BRANCH_INDIRECT_CALL: 0
BRANCH_RETURN: 0.00057

