
*** ChampSim Multicore Out-of-Order Simulator ***

Warmup Instructions: 10000000
Simulation Instructions: 100000000
Number of CPUs: 1
Off-chip DRAM Size: 4 GiB Channels: 1 Width: 64-bit Data Rate: 3200 MT/s

VirtualMemory physical capacity: 8588881920 num_ppages: 2096895
VirtualMemory page size: 4096 log2_page_size: 12

CPU 0 runs /datasets/cs240c-wi22-a00-public/data/Assignment2/bzip2_259B.trace.xz
CPU 0 Bimodal branch predictor
Basic BTB sets: 1024 ways: 8 indirect buffer size: 4096 RAS size: 64
Initialize Hawkeye state
Initialize SRRIP state
Heartbeat CPU 0 instructions: 10000002 cycles: 2535454 heartbeat IPC: 3.94407 cumulative IPC: 3.94407 (Simulation time: 0 hr 0 min 18 sec) 

Warmup complete CPU 0 instructions: 10000002 cycles: 2535454 (Simulation time: 0 hr 0 min 18 sec) 

Heartbeat CPU 0 instructions: 20000003 cycles: 9004066 heartbeat IPC: 1.54593 cumulative IPC: 1.54593 (Simulation time: 0 hr 0 min 59 sec) 
Heartbeat CPU 0 instructions: 30000002 cycles: 14550921 heartbeat IPC: 1.80282 cumulative IPC: 1.66452 (Simulation time: 0 hr 1 min 33 sec) 
Heartbeat CPU 0 instructions: 40000003 cycles: 21378120 heartbeat IPC: 1.46473 cumulative IPC: 1.59213 (Simulation time: 0 hr 2 min 1 sec) 
Heartbeat CPU 0 instructions: 50000003 cycles: 29565467 heartbeat IPC: 1.2214 cumulative IPC: 1.47984 (Simulation time: 0 hr 2 min 22 sec) 
Heartbeat CPU 0 instructions: 60000001 cycles: 37426265 heartbeat IPC: 1.27214 cumulative IPC: 1.43304 (Simulation time: 0 hr 2 min 42 sec) 
Heartbeat CPU 0 instructions: 70000004 cycles: 43574668 heartbeat IPC: 1.62644 cumulative IPC: 1.46202 (Simulation time: 0 hr 3 min 18 sec) 
Heartbeat CPU 0 instructions: 80000004 cycles: 50444219 heartbeat IPC: 1.4557 cumulative IPC: 1.46111 (Simulation time: 0 hr 3 min 56 sec) 
Heartbeat CPU 0 instructions: 90000001 cycles: 56749057 heartbeat IPC: 1.58608 cumulative IPC: 1.47564 (Simulation time: 0 hr 4 min 26 sec) 
Heartbeat CPU 0 instructions: 100000000 cycles: 65148442 heartbeat IPC: 1.19056 cumulative IPC: 1.4374 (Simulation time: 0 hr 4 min 46 sec) 
Heartbeat CPU 0 instructions: 110000000 cycles: 73128917 heartbeat IPC: 1.25306 cumulative IPC: 1.41656 (Simulation time: 0 hr 5 min 6 sec) 
Finished CPU 0 instructions: 100000003 cycles: 70593468 cumulative IPC: 1.41656 (Simulation time: 0 hr 5 min 6 sec) 

ChampSim completed all CPUs

Region of Interest Statistics

CPU 0 cumulative IPC: 1.41656 instructions: 100000003 cycles: 70593468
cpu0_DTLB TOTAL     ACCESS:   18626103  HIT:   17965498  MISS:     660605
cpu0_DTLB LOAD      ACCESS:    9572512  HIT:    8915801  MISS:     656711
cpu0_DTLB RFO       ACCESS:    9053591  HIT:    9049697  MISS:       3894
cpu0_DTLB PREFETCH  ACCESS:          0  HIT:          0  MISS:          0
cpu0_DTLB WRITEBACK ACCESS:          0  HIT:          0  MISS:          0
cpu0_DTLB TRANSLATION ACCESS:          0  HIT:          0  MISS:          0
cpu0_DTLB PREFETCH  REQUESTED:          0  ISSUED:          0  USEFUL:          0  USELESS:          0
cpu0_DTLB AVERAGE MISS LATENCY: 9.26339 cycles
cpu0_ITLB TOTAL     ACCESS:    6775035  HIT:    6775032  MISS:          3
cpu0_ITLB LOAD      ACCESS:    6775035  HIT:    6775032  MISS:          3
cpu0_ITLB RFO       ACCESS:          0  HIT:          0  MISS:          0
cpu0_ITLB PREFETCH  ACCESS:          0  HIT:          0  MISS:          0
cpu0_ITLB WRITEBACK ACCESS:          0  HIT:          0  MISS:          0
cpu0_ITLB TRANSLATION ACCESS:          0  HIT:          0  MISS:          0
cpu0_ITLB PREFETCH  REQUESTED:          0  ISSUED:          0  USEFUL:          0  USELESS:          0
cpu0_ITLB AVERAGE MISS LATENCY: 395.333 cycles
cpu0_L1I TOTAL     ACCESS:      58652  HIT:      58513  MISS:        139
cpu0_L1I LOAD      ACCESS:      58652  HIT:      58513  MISS:        139
cpu0_L1I RFO       ACCESS:          0  HIT:          0  MISS:          0
cpu0_L1I PREFETCH  ACCESS:          0  HIT:          0  MISS:          0
cpu0_L1I WRITEBACK ACCESS:          0  HIT:          0  MISS:          0
cpu0_L1I TRANSLATION ACCESS:          0  HIT:          0  MISS:          0
cpu0_L1I PREFETCH  REQUESTED:          0  ISSUED:          0  USEFUL:          0  USELESS:          0
cpu0_L1I AVERAGE MISS LATENCY: 206.59 cycles
cpu0_STLB TOTAL     ACCESS:     660608  HIT:     659788  MISS:        820
cpu0_STLB LOAD      ACCESS:     656714  HIT:     656439  MISS:        275
cpu0_STLB RFO       ACCESS:       3894  HIT:       3349  MISS:        545
cpu0_STLB PREFETCH  ACCESS:          0  HIT:          0  MISS:          0
cpu0_STLB WRITEBACK ACCESS:          0  HIT:          0  MISS:          0
cpu0_STLB TRANSLATION ACCESS:          0  HIT:          0  MISS:          0
cpu0_STLB PREFETCH  REQUESTED:          0  ISSUED:          0  USEFUL:          0  USELESS:          0
cpu0_STLB AVERAGE MISS LATENCY: 213.533 cycles
cpu0_L1D TOTAL     ACCESS:   20322864  HIT:   19317289  MISS:    1005575
cpu0_L1D LOAD      ACCESS:   10370041  HIT:    9483663  MISS:     886378
cpu0_L1D RFO       ACCESS:    9952005  HIT:    9833127  MISS:     118878
cpu0_L1D PREFETCH  ACCESS:          0  HIT:          0  MISS:          0
cpu0_L1D WRITEBACK ACCESS:          0  HIT:          0  MISS:          0
cpu0_L1D TRANSLATION ACCESS:        818  HIT:        499  MISS:        319
cpu0_L1D PREFETCH  REQUESTED:          0  ISSUED:          0  USEFUL:          0  USELESS:          0
cpu0_L1D AVERAGE MISS LATENCY: 89.2107 cycles
cpu0_L2C TOTAL     ACCESS:    1222710  HIT:     525092  MISS:     697618
cpu0_L2C LOAD      ACCESS:     886514  HIT:     288924  MISS:     597590
cpu0_L2C RFO       ACCESS:     118877  HIT:      18903  MISS:      99974
cpu0_L2C PREFETCH  ACCESS:          0  HIT:          0  MISS:          0
cpu0_L2C WRITEBACK ACCESS:     217000  HIT:     216964  MISS:         36
cpu0_L2C TRANSLATION ACCESS:        319  HIT:        301  MISS:         18
cpu0_L2C PREFETCH  REQUESTED:          0  ISSUED:          0  USEFUL:          0  USELESS:          0
cpu0_L2C AVERAGE MISS LATENCY: 112.77 cycles
LLC TOTAL     ACCESS:     886581  HIT:     584892  MISS:     301689
LLC LOAD      ACCESS:     597589  HIT:     400875  MISS:     196714
LLC RFO       ACCESS:      99974  HIT:      38130  MISS:      61844
LLC PREFETCH  ACCESS:          0  HIT:          0  MISS:          0
LLC WRITEBACK ACCESS:     189000  HIT:     145886  MISS:      43114
LLC TRANSLATION ACCESS:         18  HIT:          1  MISS:         17
LLC PREFETCH  REQUESTED:          0  ISSUED:          0  USEFUL:          0  USELESS:          0
LLC AVERAGE MISS LATENCY: 212.206 cycles
OPTgen accesses: 11231
OPTgen hits: 7993
OPTgen hit rate: 71.1691


Insertion Distribution: 
	LOAD 44833 0 67556 84907 
	RFO 9897 0 33368 34537 
	PREF 0 0 0 0 
	WRITEBACK 0 0 0 43114 
	TRANSLATION 1 0 15 12 
Total Prefetch Downgrades: 0
DIP stats:
h_count: 703460(0.772049)
s_count: 207700(0.227951)
total: 911160
hm_count: 4821
sm_count: 4753

DRAM Statistics
 CHANNEL 0
 RQ ROW_BUFFER_HIT:      37535  ROW_BUFFER_MISS:     220869
 DBUS AVG_CONGESTED_CYCLE:    3.95334
 WQ ROW_BUFFER_HIT:      15046  ROW_BUFFER_MISS:     114715  FULL:        149


CPU 0 Branch Prediction Accuracy: 93.3658% MPKI: 11.2167 Average ROB Occupancy at Mispredict: 31.7176
Branch type MPKI
BRANCH_DIRECT_JUMP: 0.0006
BRANCH_INDIRECT: 0.01713
BRANCH_CONDITIONAL: 11.1989
BRANCH_DIRECT_CALL: 5e-05
BRANCH_INDIRECT_CALL: 0
BRANCH_RETURN: 6e-05

