
*** ChampSim Multicore Out-of-Order Simulator ***

Warmup Instructions: 10000000
Simulation Instructions: 100000000
Number of CPUs: 1
Off-chip DRAM Size: 4 GiB Channels: 1 Width: 64-bit Data Rate: 3200 MT/s

VirtualMemory physical capacity: 8588881920 num_ppages: 2096895
VirtualMemory page size: 4096 log2_page_size: 12

CPU 0 runs /datasets/cs240c-wi22-a00-public/data/Assignment2/lbm_564B.trace.xz
CPU 0 Bimodal branch predictor
Basic BTB sets: 1024 ways: 8 indirect buffer size: 4096 RAS size: 64
Initialize Hawkeye state
Initialize SRRIP state
Heartbeat CPU 0 instructions: 10000000 cycles: 2507075 heartbeat IPC: 3.98871 cumulative IPC: 3.98871 (Simulation time: 0 hr 0 min 18 sec) 

Warmup complete CPU 0 instructions: 10000004 cycles: 2507076 (Simulation time: 0 hr 0 min 18 sec) 

Heartbeat CPU 0 instructions: 20000004 cycles: 35021084 heartbeat IPC: 0.30756 cumulative IPC: 0.30756 (Simulation time: 0 hr 1 min 49 sec) 
Heartbeat CPU 0 instructions: 30000000 cycles: 91127807 heartbeat IPC: 0.178232 cumulative IPC: 0.225681 (Simulation time: 0 hr 4 min 56 sec) 
Heartbeat CPU 0 instructions: 40000000 cycles: 126023080 heartbeat IPC: 0.286572 cumulative IPC: 0.242883 (Simulation time: 0 hr 6 min 33 sec) 
Heartbeat CPU 0 instructions: 50000000 cycles: 159273068 heartbeat IPC: 0.300752 cumulative IPC: 0.255157 (Simulation time: 0 hr 8 min 5 sec) 
Heartbeat CPU 0 instructions: 60000001 cycles: 190731996 heartbeat IPC: 0.317875 cumulative IPC: 0.26564 (Simulation time: 0 hr 9 min 33 sec) 
Heartbeat CPU 0 instructions: 70000002 cycles: 222269958 heartbeat IPC: 0.317078 cumulative IPC: 0.273022 (Simulation time: 0 hr 11 min 3 sec) 
Heartbeat CPU 0 instructions: 80000004 cycles: 255423053 heartbeat IPC: 0.301631 cumulative IPC: 0.276772 (Simulation time: 0 hr 12 min 39 sec) 
Heartbeat CPU 0 instructions: 90000003 cycles: 287855829 heartbeat IPC: 0.30833 cumulative IPC: 0.280359 (Simulation time: 0 hr 14 min 14 sec) 
Heartbeat CPU 0 instructions: 100000003 cycles: 322327073 heartbeat IPC: 0.290097 cumulative IPC: 0.281408 (Simulation time: 0 hr 15 min 56 sec) 
Heartbeat CPU 0 instructions: 110000003 cycles: 361560556 heartbeat IPC: 0.254884 cumulative IPC: 0.27851 (Simulation time: 0 hr 17 min 51 sec) 
Finished CPU 0 instructions: 100000004 cycles: 359053481 cumulative IPC: 0.27851 (Simulation time: 0 hr 17 min 51 sec) 

ChampSim completed all CPUs

Region of Interest Statistics

CPU 0 cumulative IPC: 0.27851 instructions: 100000004 cycles: 359053481
cpu0_DTLB TOTAL     ACCESS:   13899032  HIT:   13846258  MISS:      52774
cpu0_DTLB LOAD      ACCESS:    6987972  HIT:    6974773  MISS:      13199
cpu0_DTLB RFO       ACCESS:    6911060  HIT:    6871485  MISS:      39575
cpu0_DTLB PREFETCH  ACCESS:          0  HIT:          0  MISS:          0
cpu0_DTLB WRITEBACK ACCESS:          0  HIT:          0  MISS:          0
cpu0_DTLB TRANSLATION ACCESS:          0  HIT:          0  MISS:          0
cpu0_DTLB PREFETCH  REQUESTED:          0  ISSUED:          0  USEFUL:          0  USELESS:          0
cpu0_DTLB AVERAGE MISS LATENCY: 471.531 cycles
cpu0_ITLB TOTAL     ACCESS:     150371  HIT:     150370  MISS:          1
cpu0_ITLB LOAD      ACCESS:     150371  HIT:     150370  MISS:          1
cpu0_ITLB RFO       ACCESS:          0  HIT:          0  MISS:          0
cpu0_ITLB PREFETCH  ACCESS:          0  HIT:          0  MISS:          0
cpu0_ITLB WRITEBACK ACCESS:          0  HIT:          0  MISS:          0
cpu0_ITLB TRANSLATION ACCESS:          0  HIT:          0  MISS:          0
cpu0_ITLB PREFETCH  REQUESTED:          0  ISSUED:          0  USEFUL:          0  USELESS:          0
cpu0_ITLB AVERAGE MISS LATENCY: 857 cycles
cpu0_L1I TOTAL     ACCESS:         12  HIT:          6  MISS:          6
cpu0_L1I LOAD      ACCESS:         12  HIT:          6  MISS:          6
cpu0_L1I RFO       ACCESS:          0  HIT:          0  MISS:          0
cpu0_L1I PREFETCH  ACCESS:          0  HIT:          0  MISS:          0
cpu0_L1I WRITEBACK ACCESS:          0  HIT:          0  MISS:          0
cpu0_L1I TRANSLATION ACCESS:          0  HIT:          0  MISS:          0
cpu0_L1I PREFETCH  REQUESTED:          0  ISSUED:          0  USEFUL:          0  USELESS:          0
cpu0_L1I AVERAGE MISS LATENCY: 332.333 cycles
cpu0_STLB TOTAL     ACCESS:      52775  HIT:          5  MISS:      52770
cpu0_STLB LOAD      ACCESS:      13200  HIT:          0  MISS:      13200
cpu0_STLB RFO       ACCESS:      39575  HIT:          5  MISS:      39570
cpu0_STLB PREFETCH  ACCESS:          0  HIT:          0  MISS:          0
cpu0_STLB WRITEBACK ACCESS:          0  HIT:          0  MISS:          0
cpu0_STLB TRANSLATION ACCESS:          0  HIT:          0  MISS:          0
cpu0_STLB PREFETCH  REQUESTED:          0  ISSUED:          0  USEFUL:          0  USELESS:          0
cpu0_STLB AVERAGE MISS LATENCY: 462.582 cycles
cpu0_L1D TOTAL     ACCESS:   15378805  HIT:    9812608  MISS:    5566197
cpu0_L1D LOAD      ACCESS:    4368135  HIT:    3524549  MISS:     843586
cpu0_L1D RFO       ACCESS:   10957916  HIT:    6235356  MISS:    4722560
cpu0_L1D PREFETCH  ACCESS:          0  HIT:          0  MISS:          0
cpu0_L1D WRITEBACK ACCESS:          0  HIT:          0  MISS:          0
cpu0_L1D TRANSLATION ACCESS:      52754  HIT:      52703  MISS:         51
cpu0_L1D PREFETCH  REQUESTED:          0  ISSUED:          0  USEFUL:          0  USELESS:          0
cpu0_L1D AVERAGE MISS LATENCY: 482.136 cycles
cpu0_L2C TOTAL     ACCESS:   10288761  HIT:    6913181  MISS:    3375580
cpu0_L2C LOAD      ACCESS:     843592  HIT:        221  MISS:     843371
cpu0_L2C RFO       ACCESS:    4722559  HIT:    2190527  MISS:    2532032
cpu0_L2C PREFETCH  ACCESS:          0  HIT:          0  MISS:          0
cpu0_L2C WRITEBACK ACCESS:    4722559  HIT:    4722433  MISS:        126
cpu0_L2C TRANSLATION ACCESS:         51  HIT:          0  MISS:         51
cpu0_L2C PREFETCH  REQUESTED:          0  ISSUED:          0  USEFUL:          0  USELESS:          0
cpu0_L2C AVERAGE MISS LATENCY: 775.587 cycles
LLC TOTAL     ACCESS:    5907530  HIT:    1343570  MISS:    4563960
LLC LOAD      ACCESS:     843371  HIT:         53  MISS:     843318
LLC RFO       ACCESS:    2532031  HIT:     519132  MISS:    2012899
LLC PREFETCH  ACCESS:          0  HIT:          0  MISS:          0
LLC WRITEBACK ACCESS:    2532077  HIT:     824364  MISS:    1707713
LLC TRANSLATION ACCESS:         51  HIT:         21  MISS:         30
LLC PREFETCH  REQUESTED:          0  ISSUED:          0  USEFUL:          0  USELESS:          0
LLC AVERAGE MISS LATENCY: 558.105 cycles
OPTgen accesses: 57392
OPTgen hits: 1389
OPTgen hit rate: 2.4202


Insertion Distribution: 
	LOAD 0 0 13178 904175 
	RFO 120507 0 555397 1538507 
	PREF 0 0 0 0 
	WRITEBACK 0 0 0 1846065 
	TRANSLATION 0 0 36 8 
Total Prefetch Downgrades: 0
DIP stats:
h_count: 6015171(0.936831)
s_count: 405596(0.0631694)
total: 6420767
hm_count: 77901
sm_count: 78816

DRAM Statistics
 CHANNEL 0
 RQ ROW_BUFFER_HIT:      58407  ROW_BUFFER_MISS:    2797688
 DBUS AVG_CONGESTED_CYCLE:    3.99542
 WQ ROW_BUFFER_HIT:      29176  ROW_BUFFER_MISS:    2160112  FULL:          0


CPU 0 Branch Prediction Accuracy: 99.0902% MPKI: 0.11542 Average ROB Occupancy at Mispredict: 182.086
Branch type MPKI
BRANCH_DIRECT_JUMP: 2e-05
BRANCH_INDIRECT: 0
BRANCH_CONDITIONAL: 0.11536
BRANCH_DIRECT_CALL: 2e-05
BRANCH_INDIRECT_CALL: 0
BRANCH_RETURN: 2e-05

