
*** ChampSim Multicore Out-of-Order Simulator ***

Warmup Instructions: 10000000
Simulation Instructions: 100000000
Number of CPUs: 1
Off-chip DRAM Size: 4 GiB Channels: 1 Width: 64-bit Data Rate: 3200 MT/s

VirtualMemory physical capacity: 8588881920 num_ppages: 2096895
VirtualMemory page size: 4096 log2_page_size: 12

CPU 0 runs /datasets/cs240c-wi22-a00-public/data/Assignment2/libquantum_1210B.trace.xz
CPU 0 Bimodal branch predictor
Basic BTB sets: 1024 ways: 8 indirect buffer size: 4096 RAS size: 64
Initialize Hawkeye state
Initialize SRRIP state
Heartbeat CPU 0 instructions: 10000001 cycles: 2500056 heartbeat IPC: 3.99991 cumulative IPC: 3.99991 (Simulation time: 0 hr 0 min 25 sec) 

Warmup complete CPU 0 instructions: 10000001 cycles: 2500056 (Simulation time: 0 hr 0 min 25 sec) 

Heartbeat CPU 0 instructions: 20000000 cycles: 44012102 heartbeat IPC: 0.240894 cumulative IPC: 0.240894 (Simulation time: 0 hr 1 min 59 sec) 
Heartbeat CPU 0 instructions: 30000003 cycles: 82640740 heartbeat IPC: 0.258875 cumulative IPC: 0.249561 (Simulation time: 0 hr 3 min 28 sec) 
Heartbeat CPU 0 instructions: 40000002 cycles: 87623140 heartbeat IPC: 2.00706 cumulative IPC: 0.352431 (Simulation time: 0 hr 4 min 14 sec) 
Heartbeat CPU 0 instructions: 50000000 cycles: 103593983 heartbeat IPC: 0.626141 cumulative IPC: 0.395672 (Simulation time: 0 hr 5 min 13 sec) 
Heartbeat CPU 0 instructions: 60000001 cycles: 149299548 heartbeat IPC: 0.218792 cumulative IPC: 0.340601 (Simulation time: 0 hr 6 min 51 sec) 
Heartbeat CPU 0 instructions: 70000004 cycles: 187362575 heartbeat IPC: 0.262722 cumulative IPC: 0.324566 (Simulation time: 0 hr 8 min 14 sec) 
Heartbeat CPU 0 instructions: 80000001 cycles: 225138841 heartbeat IPC: 0.264716 cumulative IPC: 0.314411 (Simulation time: 0 hr 9 min 38 sec) 
Heartbeat CPU 0 instructions: 90000001 cycles: 266909192 heartbeat IPC: 0.239404 cumulative IPC: 0.302561 (Simulation time: 0 hr 11 min 9 sec) 
Heartbeat CPU 0 instructions: 100000002 cycles: 305965942 heartbeat IPC: 0.256038 cumulative IPC: 0.296574 (Simulation time: 0 hr 12 min 36 sec) 
Heartbeat CPU 0 instructions: 110000001 cycles: 310948695 heartbeat IPC: 2.00692 cumulative IPC: 0.324203 (Simulation time: 0 hr 13 min 25 sec) 
Finished CPU 0 instructions: 100000000 cycles: 308448639 cumulative IPC: 0.324203 (Simulation time: 0 hr 13 min 25 sec) 

ChampSim completed all CPUs

Region of Interest Statistics

CPU 0 cumulative IPC: 0.324203 instructions: 100000000 cycles: 308448639
cpu0_DTLB TOTAL     ACCESS:   11072943  HIT:   11025940  MISS:      47003
cpu0_DTLB LOAD      ACCESS:    9218480  HIT:    9171483  MISS:      46997
cpu0_DTLB RFO       ACCESS:    1854463  HIT:    1854457  MISS:          6
cpu0_DTLB PREFETCH  ACCESS:          0  HIT:          0  MISS:          0
cpu0_DTLB WRITEBACK ACCESS:          0  HIT:          0  MISS:          0
cpu0_DTLB TRANSLATION ACCESS:          0  HIT:          0  MISS:          0
cpu0_DTLB PREFETCH  REQUESTED:          0  ISSUED:          0  USEFUL:          0  USELESS:          0
cpu0_DTLB AVERAGE MISS LATENCY: 34.4834 cycles
cpu0_ITLB TOTAL     ACCESS:    4339612  HIT:    4339608  MISS:          4
cpu0_ITLB LOAD      ACCESS:    4339612  HIT:    4339608  MISS:          4
cpu0_ITLB RFO       ACCESS:          0  HIT:          0  MISS:          0
cpu0_ITLB PREFETCH  ACCESS:          0  HIT:          0  MISS:          0
cpu0_ITLB WRITEBACK ACCESS:          0  HIT:          0  MISS:          0
cpu0_ITLB TRANSLATION ACCESS:          0  HIT:          0  MISS:          0
cpu0_ITLB PREFETCH  REQUESTED:          0  ISSUED:          0  USEFUL:          0  USELESS:          0
cpu0_ITLB AVERAGE MISS LATENCY: 267.25 cycles
cpu0_L1I TOTAL     ACCESS:         38  HIT:         18  MISS:         20
cpu0_L1I LOAD      ACCESS:         38  HIT:         18  MISS:         20
cpu0_L1I RFO       ACCESS:          0  HIT:          0  MISS:          0
cpu0_L1I PREFETCH  ACCESS:          0  HIT:          0  MISS:          0
cpu0_L1I WRITEBACK ACCESS:          0  HIT:          0  MISS:          0
cpu0_L1I TRANSLATION ACCESS:          0  HIT:          0  MISS:          0
cpu0_L1I PREFETCH  REQUESTED:          0  ISSUED:          0  USEFUL:          0  USELESS:          0
cpu0_L1I AVERAGE MISS LATENCY: 195.9 cycles
cpu0_STLB TOTAL     ACCESS:      47007  HIT:          0  MISS:      47007
cpu0_STLB LOAD      ACCESS:      47001  HIT:          0  MISS:      47001
cpu0_STLB RFO       ACCESS:          6  HIT:          0  MISS:          6
cpu0_STLB PREFETCH  ACCESS:          0  HIT:          0  MISS:          0
cpu0_STLB WRITEBACK ACCESS:          0  HIT:          0  MISS:          0
cpu0_STLB TRANSLATION ACCESS:          0  HIT:          0  MISS:          0
cpu0_STLB PREFETCH  REQUESTED:          0  ISSUED:          0  USEFUL:          0  USELESS:          0
cpu0_STLB AVERAGE MISS LATENCY: 25.5032 cycles
cpu0_L1D TOTAL     ACCESS:    7110302  HIT:    4103498  MISS:    3006804
cpu0_L1D LOAD      ACCESS:    4892895  HIT:    1886149  MISS:    3006746
cpu0_L1D RFO       ACCESS:    2170399  HIT:    2170377  MISS:         22
cpu0_L1D PREFETCH  ACCESS:          0  HIT:          0  MISS:          0
cpu0_L1D WRITEBACK ACCESS:          0  HIT:          0  MISS:          0
cpu0_L1D TRANSLATION ACCESS:      47008  HIT:      46972  MISS:         36
cpu0_L1D PREFETCH  REQUESTED:          0  ISSUED:          0  USEFUL:          0  USELESS:          0
cpu0_L1D AVERAGE MISS LATENCY: 213.347 cycles
cpu0_L2C TOTAL     ACCESS:    4045647  HIT:    1038823  MISS:    3006824
cpu0_L2C LOAD      ACCESS:    3006766  HIT:          0  MISS:    3006766
cpu0_L2C RFO       ACCESS:         22  HIT:          0  MISS:         22
cpu0_L2C PREFETCH  ACCESS:          0  HIT:          0  MISS:          0
cpu0_L2C WRITEBACK ACCESS:    1038823  HIT:    1038823  MISS:          0
cpu0_L2C TRANSLATION ACCESS:         36  HIT:          0  MISS:         36
cpu0_L2C PREFETCH  REQUESTED:          0  ISSUED:          0  USEFUL:          0  USELESS:          0
cpu0_L2C AVERAGE MISS LATENCY: 202.343 cycles
LLC TOTAL     ACCESS:    4049066  HIT:     208266  MISS:    3840800
LLC LOAD      ACCESS:    3006766  HIT:     151146  MISS:    2855620
LLC RFO       ACCESS:         22  HIT:         16  MISS:          6
LLC PREFETCH  ACCESS:          0  HIT:          0  MISS:          0
LLC WRITEBACK ACCESS:    1042242  HIT:      57086  MISS:     985156
LLC TRANSLATION ACCESS:         36  HIT:         18  MISS:         18
LLC PREFETCH  REQUESTED:          0  ISSUED:          0  USEFUL:          0  USELESS:          0
LLC AVERAGE MISS LATENCY: 141.964 cycles
OPTgen accesses: 51093
OPTgen hits: 745
OPTgen hit rate: 1.45813


Insertion Distribution: 
	LOAD 11003 0 53720 3053694 
	RFO 0 0 6 0 
	PREF 0 0 0 0 
	WRITEBACK 0 0 0 1092967 
	TRANSLATION 1 0 14 12 
Total Prefetch Downgrades: 0
DIP stats:
h_count: 685287(0.154492)
s_count: 3750462(0.845508)
total: 4435749
hm_count: 65662
sm_count: 65839

DRAM Statistics
 CHANNEL 0
 RQ ROW_BUFFER_HIT:    1391482  ROW_BUFFER_MISS:    1464149
 DBUS AVG_CONGESTED_CYCLE:    3.76106
 WQ ROW_BUFFER_HIT:     386115  ROW_BUFFER_MISS:     617931  FULL:      29297


CPU 0 Branch Prediction Accuracy: 89.9607% MPKI: 24.1485 Average ROB Occupancy at Mispredict: 2.8332
Branch type MPKI
BRANCH_DIRECT_JUMP: 4e-05
BRANCH_INDIRECT: 0
BRANCH_CONDITIONAL: 24.1482
BRANCH_DIRECT_CALL: 0.00011
BRANCH_INDIRECT_CALL: 0
BRANCH_RETURN: 0.00012

