
*** ChampSim Multicore Out-of-Order Simulator ***

Warmup Instructions: 10000000
Simulation Instructions: 100000000
Number of CPUs: 1
Off-chip DRAM Size: 4 GiB Channels: 1 Width: 64-bit Data Rate: 3200 MT/s

VirtualMemory physical capacity: 8588881920 num_ppages: 2096895
VirtualMemory page size: 4096 log2_page_size: 12

CPU 0 runs /datasets/cs240c-wi22-a00-public/data/Assignment2/libquantum_1210B.trace.xz
CPU 0 Bimodal branch predictor
Basic BTB sets: 1024 ways: 8 indirect buffer size: 4096 RAS size: 64
Initialize Hawkeye state
Initialize SRRIP state
Heartbeat CPU 0 instructions: 10000001 cycles: 2500056 heartbeat IPC: 3.99991 cumulative IPC: 3.99991 (Simulation time: 0 hr 0 min 16 sec) 

Warmup complete CPU 0 instructions: 10000001 cycles: 2500056 (Simulation time: 0 hr 0 min 16 sec) 

Heartbeat CPU 0 instructions: 20000000 cycles: 44509395 heartbeat IPC: 0.238042 cumulative IPC: 0.238042 (Simulation time: 0 hr 1 min 16 sec) 
Heartbeat CPU 0 instructions: 30000003 cycles: 82755065 heartbeat IPC: 0.261468 cumulative IPC: 0.249206 (Simulation time: 0 hr 2 min 13 sec) 
Heartbeat CPU 0 instructions: 40000002 cycles: 87745960 heartbeat IPC: 2.00365 cumulative IPC: 0.351923 (Simulation time: 0 hr 2 min 42 sec) 
Heartbeat CPU 0 instructions: 50000000 cycles: 103949963 heartbeat IPC: 0.617131 cumulative IPC: 0.394283 (Simulation time: 0 hr 3 min 21 sec) 
Heartbeat CPU 0 instructions: 60000001 cycles: 148965593 heartbeat IPC: 0.222145 cumulative IPC: 0.341377 (Simulation time: 0 hr 4 min 22 sec) 
Heartbeat CPU 0 instructions: 70000004 cycles: 186820715 heartbeat IPC: 0.264165 cumulative IPC: 0.32552 (Simulation time: 0 hr 5 min 16 sec) 
Heartbeat CPU 0 instructions: 80000001 cycles: 223846291 heartbeat IPC: 0.270083 cumulative IPC: 0.316247 (Simulation time: 0 hr 6 min 8 sec) 
Heartbeat CPU 0 instructions: 90000001 cycles: 265987445 heartbeat IPC: 0.237298 cumulative IPC: 0.30362 (Simulation time: 0 hr 7 min 7 sec) 
Heartbeat CPU 0 instructions: 100000002 cycles: 303969377 heartbeat IPC: 0.263283 cumulative IPC: 0.298538 (Simulation time: 0 hr 8 min 3 sec) 
Heartbeat CPU 0 instructions: 110000001 cycles: 308975265 heartbeat IPC: 1.99765 cumulative IPC: 0.326291 (Simulation time: 0 hr 8 min 33 sec) 
Finished CPU 0 instructions: 100000000 cycles: 306475209 cumulative IPC: 0.326291 (Simulation time: 0 hr 8 min 33 sec) 

ChampSim completed all CPUs

Region of Interest Statistics

CPU 0 cumulative IPC: 0.326291 instructions: 100000000 cycles: 306475209
cpu0_DTLB TOTAL     ACCESS:   11085104  HIT:   11038101  MISS:      47003
cpu0_DTLB LOAD      ACCESS:    9230639  HIT:    9183642  MISS:      46997
cpu0_DTLB RFO       ACCESS:    1854465  HIT:    1854459  MISS:          6
cpu0_DTLB PREFETCH  ACCESS:          0  HIT:          0  MISS:          0
cpu0_DTLB WRITEBACK ACCESS:          0  HIT:          0  MISS:          0
cpu0_DTLB TRANSLATION ACCESS:          0  HIT:          0  MISS:          0
cpu0_DTLB PREFETCH  REQUESTED:          0  ISSUED:          0  USEFUL:          0  USELESS:          0
cpu0_DTLB AVERAGE MISS LATENCY: 34.5018 cycles
cpu0_ITLB TOTAL     ACCESS:    4338112  HIT:    4338108  MISS:          4
cpu0_ITLB LOAD      ACCESS:    4338112  HIT:    4338108  MISS:          4
cpu0_ITLB RFO       ACCESS:          0  HIT:          0  MISS:          0
cpu0_ITLB PREFETCH  ACCESS:          0  HIT:          0  MISS:          0
cpu0_ITLB WRITEBACK ACCESS:          0  HIT:          0  MISS:          0
cpu0_ITLB TRANSLATION ACCESS:          0  HIT:          0  MISS:          0
cpu0_ITLB PREFETCH  REQUESTED:          0  ISSUED:          0  USEFUL:          0  USELESS:          0
cpu0_ITLB AVERAGE MISS LATENCY: 267.25 cycles
cpu0_L1I TOTAL     ACCESS:         38  HIT:         18  MISS:         20
cpu0_L1I LOAD      ACCESS:         38  HIT:         18  MISS:         20
cpu0_L1I RFO       ACCESS:          0  HIT:          0  MISS:          0
cpu0_L1I PREFETCH  ACCESS:          0  HIT:          0  MISS:          0
cpu0_L1I WRITEBACK ACCESS:          0  HIT:          0  MISS:          0
cpu0_L1I TRANSLATION ACCESS:          0  HIT:          0  MISS:          0
cpu0_L1I PREFETCH  REQUESTED:          0  ISSUED:          0  USEFUL:          0  USELESS:          0
cpu0_L1I AVERAGE MISS LATENCY: 195.9 cycles
cpu0_STLB TOTAL     ACCESS:      47007  HIT:          0  MISS:      47007
cpu0_STLB LOAD      ACCESS:      47001  HIT:          0  MISS:      47001
cpu0_STLB RFO       ACCESS:          6  HIT:          0  MISS:          6
cpu0_STLB PREFETCH  ACCESS:          0  HIT:          0  MISS:          0
cpu0_STLB WRITEBACK ACCESS:          0  HIT:          0  MISS:          0
cpu0_STLB TRANSLATION ACCESS:          0  HIT:          0  MISS:          0
cpu0_STLB PREFETCH  REQUESTED:          0  ISSUED:          0  USEFUL:          0  USELESS:          0
cpu0_STLB AVERAGE MISS LATENCY: 25.5216 cycles
cpu0_L1D TOTAL     ACCESS:    7109622  HIT:    4102818  MISS:    3006804
cpu0_L1D LOAD      ACCESS:    4892214  HIT:    1885468  MISS:    3006746
cpu0_L1D RFO       ACCESS:    2170400  HIT:    2170378  MISS:         22
cpu0_L1D PREFETCH  ACCESS:          0  HIT:          0  MISS:          0
cpu0_L1D WRITEBACK ACCESS:          0  HIT:          0  MISS:          0
cpu0_L1D TRANSLATION ACCESS:      47008  HIT:      46972  MISS:         36
cpu0_L1D PREFETCH  REQUESTED:          0  ISSUED:          0  USEFUL:          0  USELESS:          0
cpu0_L1D AVERAGE MISS LATENCY: 213.842 cycles
cpu0_L2C TOTAL     ACCESS:    4045647  HIT:    1038823  MISS:    3006824
cpu0_L2C LOAD      ACCESS:    3006766  HIT:          0  MISS:    3006766
cpu0_L2C RFO       ACCESS:         22  HIT:          0  MISS:         22
cpu0_L2C PREFETCH  ACCESS:          0  HIT:          0  MISS:          0
cpu0_L2C WRITEBACK ACCESS:    1038823  HIT:    1038823  MISS:          0
cpu0_L2C TRANSLATION ACCESS:         36  HIT:          0  MISS:         36
cpu0_L2C PREFETCH  REQUESTED:          0  ISSUED:          0  USEFUL:          0  USELESS:          0
cpu0_L2C AVERAGE MISS LATENCY: 202.838 cycles
LLC TOTAL     ACCESS:    4049066  HIT:     188849  MISS:    3860217
LLC LOAD      ACCESS:    3006766  HIT:     128501  MISS:    2878265
LLC RFO       ACCESS:         22  HIT:         16  MISS:          6
LLC PREFETCH  ACCESS:          0  HIT:          0  MISS:          0
LLC WRITEBACK ACCESS:    1042242  HIT:      60319  MISS:     981923
LLC TRANSLATION ACCESS:         36  HIT:         13  MISS:         23
LLC PREFETCH  REQUESTED:          0  ISSUED:          0  USEFUL:          0  USELESS:          0
LLC AVERAGE MISS LATENCY: 141.636 cycles
OPTgen accesses: 51093
OPTgen hits: 745
OPTgen hit rate: 1.45813


Insertion Distribution: 
	LOAD 37943 0 52222 3050897 
	RFO 0 0 6 0 
	PREF 0 0 0 0 
	WRITEBACK 0 0 0 1084227 
	TRANSLATION 4 0 16 12 
Total Prefetch Downgrades: 0
DIP stats:
h_count: 1534237(0.34588)
s_count: 2901512(0.65412)
total: 4435749
hm_count: 65662
sm_count: 65839

DRAM Statistics
 CHANNEL 0
 RQ ROW_BUFFER_HIT:    1425127  ROW_BUFFER_MISS:    1453168
 DBUS AVG_CONGESTED_CYCLE:    3.75719
 WQ ROW_BUFFER_HIT:     386052  ROW_BUFFER_MISS:     621512  FULL:      36221


CPU 0 Branch Prediction Accuracy: 89.9607% MPKI: 24.1485 Average ROB Occupancy at Mispredict: 2.8332
Branch type MPKI
BRANCH_DIRECT_JUMP: 4e-05
BRANCH_INDIRECT: 0
BRANCH_CONDITIONAL: 24.1482
BRANCH_DIRECT_CALL: 0.00011
BRANCH_INDIRECT_CALL: 0
BRANCH_RETURN: 0.00012

