
*** ChampSim Multicore Out-of-Order Simulator ***

Warmup Instructions: 10000000
Simulation Instructions: 100000000
Number of CPUs: 1
Off-chip DRAM Size: 4 GiB Channels: 1 Width: 64-bit Data Rate: 3200 MT/s

VirtualMemory physical capacity: 8588881920 num_ppages: 2096895
VirtualMemory page size: 4096 log2_page_size: 12

CPU 0 runs /datasets/cs240c-wi22-a00-public/data/Assignment2/leslie3d_1116B.trace.xz
CPU 0 Bimodal branch predictor
Basic BTB sets: 1024 ways: 8 indirect buffer size: 4096 RAS size: 64
Initialize Hawkeye state
Initialize SRRIP state
Heartbeat CPU 0 instructions: 10000000 cycles: 3692452 heartbeat IPC: 2.70823 cumulative IPC: 2.70823 (Simulation time: 0 hr 0 min 33 sec) 

Warmup complete CPU 0 instructions: 10000005 cycles: 3692453 (Simulation time: 0 hr 0 min 33 sec) 

Heartbeat CPU 0 instructions: 20000000 cycles: 12955220 heartbeat IPC: 1.07959 cumulative IPC: 1.07959 (Simulation time: 0 hr 1 min 30 sec) 
Heartbeat CPU 0 instructions: 30000004 cycles: 22018067 heartbeat IPC: 1.10341 cumulative IPC: 1.09137 (Simulation time: 0 hr 2 min 27 sec) 
Heartbeat CPU 0 instructions: 40000000 cycles: 33871605 heartbeat IPC: 0.84363 cumulative IPC: 0.994064 (Simulation time: 0 hr 3 min 32 sec) 
Heartbeat CPU 0 instructions: 50000000 cycles: 55429729 heartbeat IPC: 0.463862 cumulative IPC: 0.773137 (Simulation time: 0 hr 5 min 9 sec) 
Heartbeat CPU 0 instructions: 60000001 cycles: 109554133 heartbeat IPC: 0.18476 cumulative IPC: 0.472314 (Simulation time: 0 hr 8 min 33 sec) 
Heartbeat CPU 0 instructions: 70000000 cycles: 123879403 heartbeat IPC: 0.698067 cumulative IPC: 0.499222 (Simulation time: 0 hr 9 min 49 sec) 
Heartbeat CPU 0 instructions: 80000001 cycles: 135846645 heartbeat IPC: 0.835615 cumulative IPC: 0.529684 (Simulation time: 0 hr 10 min 57 sec) 
Heartbeat CPU 0 instructions: 90000004 cycles: 148511152 heartbeat IPC: 0.789609 cumulative IPC: 0.552415 (Simulation time: 0 hr 12 min 8 sec) 
Heartbeat CPU 0 instructions: 100000002 cycles: 161100650 heartbeat IPC: 0.794313 cumulative IPC: 0.571762 (Simulation time: 0 hr 13 min 19 sec) 
Heartbeat CPU 0 instructions: 110000000 cycles: 178179673 heartbeat IPC: 0.585513 cumulative IPC: 0.573108 (Simulation time: 0 hr 14 min 39 sec) 
Finished CPU 0 instructions: 100000000 cycles: 174487221 cumulative IPC: 0.573108 (Simulation time: 0 hr 14 min 39 sec) 

ChampSim completed all CPUs

Region of Interest Statistics

CPU 0 cumulative IPC: 0.573108 instructions: 100000000 cycles: 174487221
cpu0_DTLB TOTAL     ACCESS:   25739256  HIT:   25673552  MISS:      65704
cpu0_DTLB LOAD      ACCESS:   21126104  HIT:   21074454  MISS:      51650
cpu0_DTLB RFO       ACCESS:    4613152  HIT:    4599098  MISS:      14054
cpu0_DTLB PREFETCH  ACCESS:          0  HIT:          0  MISS:          0
cpu0_DTLB WRITEBACK ACCESS:          0  HIT:          0  MISS:          0
cpu0_DTLB TRANSLATION ACCESS:          0  HIT:          0  MISS:          0
cpu0_DTLB PREFETCH  REQUESTED:          0  ISSUED:          0  USEFUL:          0  USELESS:          0
cpu0_DTLB AVERAGE MISS LATENCY: 85.8646 cycles
cpu0_ITLB TOTAL     ACCESS:    2874764  HIT:    2874746  MISS:         18
cpu0_ITLB LOAD      ACCESS:    2874764  HIT:    2874746  MISS:         18
cpu0_ITLB RFO       ACCESS:          0  HIT:          0  MISS:          0
cpu0_ITLB PREFETCH  ACCESS:          0  HIT:          0  MISS:          0
cpu0_ITLB WRITEBACK ACCESS:          0  HIT:          0  MISS:          0
cpu0_ITLB TRANSLATION ACCESS:          0  HIT:          0  MISS:          0
cpu0_ITLB PREFETCH  REQUESTED:          0  ISSUED:          0  USEFUL:          0  USELESS:          0
cpu0_ITLB AVERAGE MISS LATENCY: 339.111 cycles
cpu0_L1I TOTAL     ACCESS:    1780941  HIT:    1780469  MISS:        472
cpu0_L1I LOAD      ACCESS:    1780941  HIT:    1780469  MISS:        472
cpu0_L1I RFO       ACCESS:          0  HIT:          0  MISS:          0
cpu0_L1I PREFETCH  ACCESS:          0  HIT:          0  MISS:          0
cpu0_L1I WRITEBACK ACCESS:          0  HIT:          0  MISS:          0
cpu0_L1I TRANSLATION ACCESS:          0  HIT:          0  MISS:          0
cpu0_L1I PREFETCH  REQUESTED:          0  ISSUED:          0  USEFUL:          0  USELESS:          0
cpu0_L1I AVERAGE MISS LATENCY: 359.102 cycles
cpu0_STLB TOTAL     ACCESS:      65722  HIT:      34098  MISS:      31624
cpu0_STLB LOAD      ACCESS:      51668  HIT:      28202  MISS:      23466
cpu0_STLB RFO       ACCESS:      14054  HIT:       5896  MISS:       8158
cpu0_STLB PREFETCH  ACCESS:          0  HIT:          0  MISS:          0
cpu0_STLB WRITEBACK ACCESS:          0  HIT:          0  MISS:          0
cpu0_STLB TRANSLATION ACCESS:          0  HIT:          0  MISS:          0
cpu0_STLB PREFETCH  REQUESTED:          0  ISSUED:          0  USEFUL:          0  USELESS:          0
cpu0_STLB AVERAGE MISS LATENCY: 159.875 cycles
cpu0_L1D TOTAL     ACCESS:   24568836  HIT:   21158688  MISS:    3410148
cpu0_L1D LOAD      ACCESS:   16416398  HIT:   13799278  MISS:    2617120
cpu0_L1D RFO       ACCESS:    8123110  HIT:    7333720  MISS:     789390
cpu0_L1D PREFETCH  ACCESS:          0  HIT:          0  MISS:          0
cpu0_L1D WRITEBACK ACCESS:          0  HIT:          0  MISS:          0
cpu0_L1D TRANSLATION ACCESS:      29328  HIT:      25690  MISS:       3638
cpu0_L1D PREFETCH  REQUESTED:          0  ISSUED:          0  USEFUL:          0  USELESS:          0
cpu0_L1D AVERAGE MISS LATENCY: 475.521 cycles
cpu0_L2C TOTAL     ACCESS:    4455038  HIT:    1718453  MISS:    2736585
cpu0_L2C LOAD      ACCESS:    2617539  HIT:     507710  MISS:    2109829
cpu0_L2C RFO       ACCESS:     789314  HIT:     162828  MISS:     626486
cpu0_L2C PREFETCH  ACCESS:          0  HIT:          0  MISS:          0
cpu0_L2C WRITEBACK ACCESS:    1044547  HIT:    1044375  MISS:        172
cpu0_L2C TRANSLATION ACCESS:       3638  HIT:       3540  MISS:         98
cpu0_L2C PREFETCH  REQUESTED:          0  ISSUED:          0  USEFUL:          0  USELESS:          0
cpu0_L2C AVERAGE MISS LATENCY: 578.885 cycles
LLC TOTAL     ACCESS:    3497129  HIT:     801868  MISS:    2695261
LLC LOAD      ACCESS:    2109829  HIT:     503571  MISS:    1606258
LLC RFO       ACCESS:     626486  HIT:     106408  MISS:     520078
LLC PREFETCH  ACCESS:          0  HIT:          0  MISS:          0
LLC WRITEBACK ACCESS:     760716  HIT:     191867  MISS:     568849
LLC TRANSLATION ACCESS:         98  HIT:         22  MISS:         76
LLC PREFETCH  REQUESTED:          0  ISSUED:          0  USEFUL:          0  USELESS:          0
LLC AVERAGE MISS LATENCY: 566.375 cycles
OPTgen accesses: 45253
OPTgen hits: 6117
OPTgen hit rate: 13.5173


Insertion Distribution: 
	LOAD 91516 0 213966 1415012 
	RFO 5109 0 41625 499746 
	PREF 0 0 0 0 
	WRITEBACK 0 0 0 588259 
	TRANSLATION 3 0 52 36 
Total Prefetch Downgrades: 0
DIP stats:
h_count: 3572914(0.969429)
s_count: 112671(0.0305707)
total: 3685585
hm_count: 44572
sm_count: 46065

DRAM Statistics
 CHANNEL 0
 RQ ROW_BUFFER_HIT:     218932  ROW_BUFFER_MISS:    1907258
 DBUS AVG_CONGESTED_CYCLE:    3.95992
 WQ ROW_BUFFER_HIT:      62480  ROW_BUFFER_MISS:     596834  FULL:      33065


CPU 0 Branch Prediction Accuracy: 96.8713% MPKI: 1.55303 Average ROB Occupancy at Mispredict: 298.173
Branch type MPKI
BRANCH_DIRECT_JUMP: 0.00018
BRANCH_INDIRECT: 0
BRANCH_CONDITIONAL: 1.55065
BRANCH_DIRECT_CALL: 0.00113
BRANCH_INDIRECT_CALL: 0
BRANCH_RETURN: 0.00107

