
*** ChampSim Multicore Out-of-Order Simulator ***

Warmup Instructions: 10000000
Simulation Instructions: 100000000
Number of CPUs: 1
Off-chip DRAM Size: 4 GiB Channels: 1 Width: 64-bit Data Rate: 3200 MT/s

VirtualMemory physical capacity: 8588881920 num_ppages: 2096895
VirtualMemory page size: 4096 log2_page_size: 12

CPU 0 runs /datasets/cs240c-wi22-a00-public/data/Assignment2/cactusADM_734B.trace.xz
CPU 0 Bimodal branch predictor
Basic BTB sets: 1024 ways: 8 indirect buffer size: 4096 RAS size: 64
Initialize Hawkeye state
Initialize SRRIP state
Heartbeat CPU 0 instructions: 10000002 cycles: 3647078 heartbeat IPC: 2.74192 cumulative IPC: 2.74192 (Simulation time: 0 hr 0 min 34 sec) 

Warmup complete CPU 0 instructions: 10000002 cycles: 3647078 (Simulation time: 0 hr 0 min 34 sec) 

Heartbeat CPU 0 instructions: 20000004 cycles: 13456616 heartbeat IPC: 1.01942 cumulative IPC: 1.01942 (Simulation time: 0 hr 1 min 37 sec) 
Heartbeat CPU 0 instructions: 30000001 cycles: 23067376 heartbeat IPC: 1.0405 cumulative IPC: 1.02985 (Simulation time: 0 hr 2 min 40 sec) 
Heartbeat CPU 0 instructions: 40000004 cycles: 32865097 heartbeat IPC: 1.02065 cumulative IPC: 1.02676 (Simulation time: 0 hr 3 min 44 sec) 
Heartbeat CPU 0 instructions: 50000000 cycles: 42377897 heartbeat IPC: 1.05121 cumulative IPC: 1.03277 (Simulation time: 0 hr 4 min 46 sec) 
Heartbeat CPU 0 instructions: 60000002 cycles: 48819823 heartbeat IPC: 1.55233 cumulative IPC: 1.10686 (Simulation time: 0 hr 5 min 38 sec) 
Heartbeat CPU 0 instructions: 70000003 cycles: 58080104 heartbeat IPC: 1.07988 cumulative IPC: 1.10227 (Simulation time: 0 hr 6 min 39 sec) 
Heartbeat CPU 0 instructions: 80000002 cycles: 67474153 heartbeat IPC: 1.0645 cumulative IPC: 1.09671 (Simulation time: 0 hr 7 min 40 sec) 
Heartbeat CPU 0 instructions: 90000000 cycles: 76711598 heartbeat IPC: 1.08255 cumulative IPC: 1.09492 (Simulation time: 0 hr 8 min 42 sec) 
Heartbeat CPU 0 instructions: 100000004 cycles: 82790092 heartbeat IPC: 1.64514 cumulative IPC: 1.13718 (Simulation time: 0 hr 9 min 32 sec) 
Heartbeat CPU 0 instructions: 110000001 cycles: 91632852 heartbeat IPC: 1.13087 cumulative IPC: 1.13655 (Simulation time: 0 hr 10 min 32 sec) 
Finished CPU 0 instructions: 100000004 cycles: 87985775 cumulative IPC: 1.13655 (Simulation time: 0 hr 10 min 32 sec) 

ChampSim completed all CPUs

Region of Interest Statistics

CPU 0 cumulative IPC: 1.13655 instructions: 100000004 cycles: 87985775
cpu0_DTLB TOTAL     ACCESS:   21687514  HIT:   19841429  MISS:    1846085
cpu0_DTLB LOAD      ACCESS:   17819650  HIT:   16561419  MISS:    1258231
cpu0_DTLB RFO       ACCESS:    3867864  HIT:    3280010  MISS:     587854
cpu0_DTLB PREFETCH  ACCESS:          0  HIT:          0  MISS:          0
cpu0_DTLB WRITEBACK ACCESS:          0  HIT:          0  MISS:          0
cpu0_DTLB TRANSLATION ACCESS:          0  HIT:          0  MISS:          0
cpu0_DTLB PREFETCH  REQUESTED:          0  ISSUED:          0  USEFUL:          0  USELESS:          0
cpu0_DTLB AVERAGE MISS LATENCY: 19.2446 cycles
cpu0_ITLB TOTAL     ACCESS:    1527217  HIT:    1527217  MISS:          0
cpu0_ITLB LOAD      ACCESS:    1527217  HIT:    1527217  MISS:          0
cpu0_ITLB RFO       ACCESS:          0  HIT:          0  MISS:          0
cpu0_ITLB PREFETCH  ACCESS:          0  HIT:          0  MISS:          0
cpu0_ITLB WRITEBACK ACCESS:          0  HIT:          0  MISS:          0
cpu0_ITLB TRANSLATION ACCESS:          0  HIT:          0  MISS:          0
cpu0_ITLB PREFETCH  REQUESTED:          0  ISSUED:          0  USEFUL:          0  USELESS:          0
cpu0_ITLB AVERAGE MISS LATENCY: -nan cycles
cpu0_L1I TOTAL     ACCESS:    7870534  HIT:    7870531  MISS:          3
cpu0_L1I LOAD      ACCESS:    7870534  HIT:    7870531  MISS:          3
cpu0_L1I RFO       ACCESS:          0  HIT:          0  MISS:          0
cpu0_L1I PREFETCH  ACCESS:          0  HIT:          0  MISS:          0
cpu0_L1I WRITEBACK ACCESS:          0  HIT:          0  MISS:          0
cpu0_L1I TRANSLATION ACCESS:          0  HIT:          0  MISS:          0
cpu0_L1I PREFETCH  REQUESTED:          0  ISSUED:          0  USEFUL:          0  USELESS:          0
cpu0_L1I AVERAGE MISS LATENCY: 757 cycles
cpu0_STLB TOTAL     ACCESS:    1846085  HIT:     896877  MISS:     949208
cpu0_STLB LOAD      ACCESS:    1258231  HIT:     644583  MISS:     613648
cpu0_STLB RFO       ACCESS:     587854  HIT:     252294  MISS:     335560
cpu0_STLB PREFETCH  ACCESS:          0  HIT:          0  MISS:          0
cpu0_STLB WRITEBACK ACCESS:          0  HIT:          0  MISS:          0
cpu0_STLB TRANSLATION ACCESS:          0  HIT:          0  MISS:          0
cpu0_STLB PREFETCH  REQUESTED:          0  ISSUED:          0  USEFUL:          0  USELESS:          0
cpu0_STLB AVERAGE MISS LATENCY: 19.7983 cycles
cpu0_L1D TOTAL     ACCESS:   37556956  HIT:   36236681  MISS:    1320275
cpu0_L1D LOAD      ACCESS:   25693215  HIT:   24642469  MISS:    1050746
cpu0_L1D RFO       ACCESS:   10915524  HIT:   10651376  MISS:     264148
cpu0_L1D PREFETCH  ACCESS:          0  HIT:          0  MISS:          0
cpu0_L1D WRITEBACK ACCESS:          0  HIT:          0  MISS:          0
cpu0_L1D TRANSLATION ACCESS:     948217  HIT:     942836  MISS:       5381
cpu0_L1D PREFETCH  REQUESTED:          0  ISSUED:          0  USEFUL:          0  USELESS:          0
cpu0_L1D AVERAGE MISS LATENCY: 334.446 cycles
cpu0_L2C TOTAL     ACCESS:    1588235  HIT:     691829  MISS:     896406
cpu0_L2C LOAD      ACCESS:    1050749  HIT:     418938  MISS:     631811
cpu0_L2C RFO       ACCESS:     264148  HIT:          0  MISS:     264148
cpu0_L2C PREFETCH  ACCESS:          0  HIT:          0  MISS:          0
cpu0_L2C WRITEBACK ACCESS:     267957  HIT:     267758  MISS:        199
cpu0_L2C TRANSLATION ACCESS:       5381  HIT:       5133  MISS:        248
cpu0_L2C PREFETCH  REQUESTED:          0  ISSUED:          0  USEFUL:          0  USELESS:          0
cpu0_L2C AVERAGE MISS LATENCY: 476.372 cycles
LLC TOTAL     ACCESS:    1162866  HIT:     319866  MISS:     843000
LLC LOAD      ACCESS:     631811  HIT:     153885  MISS:     477926
LLC RFO       ACCESS:     264148  HIT:      57870  MISS:     206278
LLC PREFETCH  ACCESS:          0  HIT:          0  MISS:          0
LLC WRITEBACK ACCESS:     266659  HIT:     108053  MISS:     158606
LLC TRANSLATION ACCESS:        248  HIT:         58  MISS:        190
LLC PREFETCH  REQUESTED:          0  ISSUED:          0  USEFUL:          0  USELESS:          0
LLC AVERAGE MISS LATENCY: 484.225 cycles
OPTgen accesses: 15001
OPTgen hits: 1396
OPTgen hit rate: 9.30605


Insertion Distribution: 
	LOAD 24858 0 79341 424915 
	RFO 29818 0 22541 166412 
	PREF 0 0 0 0 
	WRITEBACK 0 0 0 161338 
	TRANSLATION 1 0 56 175 
Total Prefetch Downgrades: 0
DIP stats:
h_count: 528868(0.428077)
s_count: 706584(0.571923)
total: 1235452
hm_count: 14133
sm_count: 13978

DRAM Statistics
 CHANNEL 0
 RQ ROW_BUFFER_HIT:       6192  ROW_BUFFER_MISS:     678190
 DBUS AVG_CONGESTED_CYCLE:    3.97829
 WQ ROW_BUFFER_HIT:      17955  ROW_BUFFER_MISS:     207976  FULL:        770


CPU 0 Branch Prediction Accuracy: 97.7528% MPKI: 0.04677 Average ROB Occupancy at Mispredict: 283.853
Branch type MPKI
BRANCH_DIRECT_JUMP: 0
BRANCH_INDIRECT: 0
BRANCH_CONDITIONAL: 0.04677
BRANCH_DIRECT_CALL: 0
BRANCH_INDIRECT_CALL: 0
BRANCH_RETURN: 0

