
*** ChampSim Multicore Out-of-Order Simulator ***

Warmup Instructions: 10000000
Simulation Instructions: 100000000
Number of CPUs: 1
Off-chip DRAM Size: 4 GiB Channels: 1 Width: 64-bit Data Rate: 3200 MT/s

VirtualMemory physical capacity: 8588881920 num_ppages: 2096895
VirtualMemory page size: 4096 log2_page_size: 12

CPU 0 runs /datasets/cs240c-wi22-a00-public/data/Assignment2/sphinx3_883B.trace.xz
CPU 0 Bimodal branch predictor
Basic BTB sets: 1024 ways: 8 indirect buffer size: 4096 RAS size: 64
Initialize Hawkeye state
Initialize SRRIP state
Heartbeat CPU 0 instructions: 10000003 cycles: 2628879 heartbeat IPC: 3.8039 cumulative IPC: 3.8039 (Simulation time: 0 hr 0 min 29 sec) 

Warmup complete CPU 0 instructions: 10000003 cycles: 2628879 (Simulation time: 0 hr 0 min 29 sec) 

Heartbeat CPU 0 instructions: 20000000 cycles: 15873047 heartbeat IPC: 0.755049 cumulative IPC: 0.755049 (Simulation time: 0 hr 1 min 24 sec) 
Heartbeat CPU 0 instructions: 30000001 cycles: 28889956 heartbeat IPC: 0.768232 cumulative IPC: 0.761583 (Simulation time: 0 hr 2 min 22 sec) 
Heartbeat CPU 0 instructions: 40000004 cycles: 40939825 heartbeat IPC: 0.829885 cumulative IPC: 0.783066 (Simulation time: 0 hr 3 min 14 sec) 
Heartbeat CPU 0 instructions: 50000001 cycles: 52600420 heartbeat IPC: 0.857589 cumulative IPC: 0.800456 (Simulation time: 0 hr 4 min 3 sec) 
Heartbeat CPU 0 instructions: 60000000 cycles: 62789576 heartbeat IPC: 0.981435 cumulative IPC: 0.831107 (Simulation time: 0 hr 4 min 54 sec) 
Heartbeat CPU 0 instructions: 70000002 cycles: 71870589 heartbeat IPC: 1.1012 cumulative IPC: 0.86653 (Simulation time: 0 hr 5 min 38 sec) 
Heartbeat CPU 0 instructions: 80000000 cycles: 82038927 heartbeat IPC: 0.983445 cumulative IPC: 0.8815 (Simulation time: 0 hr 6 min 30 sec) 
Heartbeat CPU 0 instructions: 90000002 cycles: 90956881 heartbeat IPC: 1.12133 cumulative IPC: 0.905715 (Simulation time: 0 hr 7 min 17 sec) 
Heartbeat CPU 0 instructions: 100000003 cycles: 99127662 heartbeat IPC: 1.22387 cumulative IPC: 0.932654 (Simulation time: 0 hr 7 min 59 sec) 
Heartbeat CPU 0 instructions: 110000003 cycles: 109201511 heartbeat IPC: 0.992669 cumulative IPC: 0.938327 (Simulation time: 0 hr 8 min 45 sec) 
Finished CPU 0 instructions: 100000000 cycles: 106572632 cumulative IPC: 0.938327 (Simulation time: 0 hr 8 min 45 sec) 

ChampSim completed all CPUs

Region of Interest Statistics

CPU 0 cumulative IPC: 0.938327 instructions: 100000000 cycles: 106572632
cpu0_DTLB TOTAL     ACCESS:   16707980  HIT:   16548021  MISS:     159959
cpu0_DTLB LOAD      ACCESS:   15360059  HIT:   15208368  MISS:     151691
cpu0_DTLB RFO       ACCESS:    1347921  HIT:    1339653  MISS:       8268
cpu0_DTLB PREFETCH  ACCESS:          0  HIT:          0  MISS:          0
cpu0_DTLB WRITEBACK ACCESS:          0  HIT:          0  MISS:          0
cpu0_DTLB TRANSLATION ACCESS:          0  HIT:          0  MISS:          0
cpu0_DTLB PREFETCH  REQUESTED:          0  ISSUED:          0  USEFUL:          0  USELESS:          0
cpu0_DTLB AVERAGE MISS LATENCY: 12.8628 cycles
cpu0_ITLB TOTAL     ACCESS:    9404582  HIT:    9404517  MISS:         65
cpu0_ITLB LOAD      ACCESS:    9404582  HIT:    9404517  MISS:         65
cpu0_ITLB RFO       ACCESS:          0  HIT:          0  MISS:          0
cpu0_ITLB PREFETCH  ACCESS:          0  HIT:          0  MISS:          0
cpu0_ITLB WRITEBACK ACCESS:          0  HIT:          0  MISS:          0
cpu0_ITLB TRANSLATION ACCESS:          0  HIT:          0  MISS:          0
cpu0_ITLB PREFETCH  REQUESTED:          0  ISSUED:          0  USEFUL:          0  USELESS:          0
cpu0_ITLB AVERAGE MISS LATENCY: 152.677 cycles
cpu0_L1I TOTAL     ACCESS:     192517  HIT:     191138  MISS:       1379
cpu0_L1I LOAD      ACCESS:     192517  HIT:     191138  MISS:       1379
cpu0_L1I RFO       ACCESS:          0  HIT:          0  MISS:          0
cpu0_L1I PREFETCH  ACCESS:          0  HIT:          0  MISS:          0
cpu0_L1I WRITEBACK ACCESS:          0  HIT:          0  MISS:          0
cpu0_L1I TRANSLATION ACCESS:          0  HIT:          0  MISS:          0
cpu0_L1I PREFETCH  REQUESTED:          0  ISSUED:          0  USEFUL:          0  USELESS:          0
cpu0_L1I AVERAGE MISS LATENCY: 204.263 cycles
cpu0_STLB TOTAL     ACCESS:     160024  HIT:      99128  MISS:      60896
cpu0_STLB LOAD      ACCESS:     151756  HIT:      92081  MISS:      59675
cpu0_STLB RFO       ACCESS:       8268  HIT:       7047  MISS:       1221
cpu0_STLB PREFETCH  ACCESS:          0  HIT:          0  MISS:          0
cpu0_STLB WRITEBACK ACCESS:          0  HIT:          0  MISS:          0
cpu0_STLB TRANSLATION ACCESS:          0  HIT:          0  MISS:          0
cpu0_STLB PREFETCH  REQUESTED:          0  ISSUED:          0  USEFUL:          0  USELESS:          0
cpu0_STLB AVERAGE MISS LATENCY: 10.1749 cycles
cpu0_L1D TOTAL     ACCESS:   12763363  HIT:   11014037  MISS:    1749326
cpu0_L1D LOAD      ACCESS:   10527510  HIT:    8893114  MISS:    1634396
cpu0_L1D RFO       ACCESS:    2177773  HIT:    2063638  MISS:     114135
cpu0_L1D PREFETCH  ACCESS:          0  HIT:          0  MISS:          0
cpu0_L1D WRITEBACK ACCESS:          0  HIT:          0  MISS:          0
cpu0_L1D TRANSLATION ACCESS:      58080  HIT:      57285  MISS:        795
cpu0_L1D PREFETCH  REQUESTED:          0  ISSUED:          0  USEFUL:          0  USELESS:          0
cpu0_L1D AVERAGE MISS LATENCY: 112.126 cycles
cpu0_L2C TOTAL     ACCESS:    1908286  HIT:     517704  MISS:    1390582
cpu0_L2C LOAD      ACCESS:    1635772  HIT:     346953  MISS:    1288819
cpu0_L2C RFO       ACCESS:     114128  HIT:      12984  MISS:     101144
cpu0_L2C PREFETCH  ACCESS:          0  HIT:          0  MISS:          0
cpu0_L2C WRITEBACK ACCESS:     157591  HIT:     157294  MISS:        297
cpu0_L2C TRANSLATION ACCESS:        795  HIT:        473  MISS:        322
cpu0_L2C PREFETCH  REQUESTED:          0  ISSUED:          0  USEFUL:          0  USELESS:          0
cpu0_L2C AVERAGE MISS LATENCY: 127.347 cycles
LLC TOTAL     ACCESS:    1524831  HIT:     747341  MISS:     777490
LLC LOAD      ACCESS:    1288819  HIT:     587234  MISS:     701585
LLC RFO       ACCESS:     101144  HIT:      61712  MISS:      39432
LLC PREFETCH  ACCESS:          0  HIT:          0  MISS:          0
LLC WRITEBACK ACCESS:     134546  HIT:      98144  MISS:      36402
LLC TRANSLATION ACCESS:        322  HIT:        251  MISS:         71
LLC PREFETCH  REQUESTED:          0  ISSUED:          0  USEFUL:          0  USELESS:          0
LLC AVERAGE MISS LATENCY: 190.179 cycles
OPTgen accesses: 23985
OPTgen hits: 8564
OPTgen hit rate: 35.7056


Insertion Distribution: 
	LOAD 6816 0 122901 685907 
	RFO 421 0 7790 35888 
	PREF 0 0 0 0 
	WRITEBACK 0 0 0 37736 
	TRANSLATION 0 0 45 50 
Total Prefetch Downgrades: 0
DIP stats:
h_count: 194091(0.115222)
s_count: 1490408(0.884778)
total: 1684499
hm_count: 16973
sm_count: 13628

DRAM Statistics
 CHANNEL 0
 RQ ROW_BUFFER_HIT:      86241  ROW_BUFFER_MISS:     654793
 DBUS AVG_CONGESTED_CYCLE:    3.79709
 WQ ROW_BUFFER_HIT:      17594  ROW_BUFFER_MISS:      28837  FULL:      15569


CPU 0 Branch Prediction Accuracy: 91.645% MPKI: 7.87682 Average ROB Occupancy at Mispredict: 154.804
Branch type MPKI
BRANCH_DIRECT_JUMP: 0.0017
BRANCH_INDIRECT: 0.00111
BRANCH_CONDITIONAL: 7.87013
BRANCH_DIRECT_CALL: 0.00166
BRANCH_INDIRECT_CALL: 0.0005
BRANCH_RETURN: 0.00172

