
*** ChampSim Multicore Out-of-Order Simulator ***

Warmup Instructions: 10000000
Simulation Instructions: 100000000
Number of CPUs: 1
Off-chip DRAM Size: 4 GiB Channels: 1 Width: 64-bit Data Rate: 3200 MT/s

VirtualMemory physical capacity: 8588881920 num_ppages: 2096895
VirtualMemory page size: 4096 log2_page_size: 12

CPU 0 runs /datasets/cs240c-wi22-a00-public/data/Assignment2/omnetpp_4B.trace.xz
CPU 0 Bimodal branch predictor
Basic BTB sets: 1024 ways: 8 indirect buffer size: 4096 RAS size: 64
Initialize Hawkeye state
Initialize SRRIP state
Heartbeat CPU 0 instructions: 10000002 cycles: 2526519 heartbeat IPC: 3.95802 cumulative IPC: 3.95802 (Simulation time: 0 hr 0 min 17 sec) 

Warmup complete CPU 0 instructions: 10000002 cycles: 2526519 (Simulation time: 0 hr 0 min 17 sec) 

Heartbeat CPU 0 instructions: 20000000 cycles: 9206626 heartbeat IPC: 1.49698 cumulative IPC: 1.49698 (Simulation time: 0 hr 0 min 41 sec) 
Heartbeat CPU 0 instructions: 30000001 cycles: 15915629 heartbeat IPC: 1.49053 cumulative IPC: 1.49375 (Simulation time: 0 hr 1 min 7 sec) 
Heartbeat CPU 0 instructions: 40000002 cycles: 22604138 heartbeat IPC: 1.4951 cumulative IPC: 1.4942 (Simulation time: 0 hr 1 min 33 sec) 
Heartbeat CPU 0 instructions: 50000000 cycles: 29425309 heartbeat IPC: 1.46602 cumulative IPC: 1.48706 (Simulation time: 0 hr 1 min 59 sec) 
Heartbeat CPU 0 instructions: 60000000 cycles: 36032978 heartbeat IPC: 1.51339 cumulative IPC: 1.49225 (Simulation time: 0 hr 2 min 25 sec) 
Heartbeat CPU 0 instructions: 70000000 cycles: 42598596 heartbeat IPC: 1.52309 cumulative IPC: 1.4973 (Simulation time: 0 hr 2 min 50 sec) 
Heartbeat CPU 0 instructions: 80000000 cycles: 49222372 heartbeat IPC: 1.50971 cumulative IPC: 1.49906 (Simulation time: 0 hr 3 min 16 sec) 
Heartbeat CPU 0 instructions: 90000000 cycles: 56192384 heartbeat IPC: 1.43472 cumulative IPC: 1.49071 (Simulation time: 0 hr 3 min 45 sec) 
Heartbeat CPU 0 instructions: 100000001 cycles: 62582797 heartbeat IPC: 1.56484 cumulative IPC: 1.49859 (Simulation time: 0 hr 4 min 8 sec) 
Heartbeat CPU 0 instructions: 110000002 cycles: 69250677 heartbeat IPC: 1.49973 cumulative IPC: 1.49871 (Simulation time: 0 hr 4 min 35 sec) 
Finished CPU 0 instructions: 100000000 cycles: 66724158 cumulative IPC: 1.49871 (Simulation time: 0 hr 4 min 35 sec) 

ChampSim completed all CPUs

Region of Interest Statistics

CPU 0 cumulative IPC: 1.49871 instructions: 100000000 cycles: 66724158
cpu0_DTLB TOTAL     ACCESS:   11687865  HIT:   10255984  MISS:    1431881
cpu0_DTLB LOAD      ACCESS:    9101632  HIT:    7671313  MISS:    1430319
cpu0_DTLB RFO       ACCESS:    2586233  HIT:    2584671  MISS:       1562
cpu0_DTLB PREFETCH  ACCESS:          0  HIT:          0  MISS:          0
cpu0_DTLB WRITEBACK ACCESS:          0  HIT:          0  MISS:          0
cpu0_DTLB TRANSLATION ACCESS:          0  HIT:          0  MISS:          0
cpu0_DTLB PREFETCH  REQUESTED:          0  ISSUED:          0  USEFUL:          0  USELESS:          0
cpu0_DTLB AVERAGE MISS LATENCY: 17.531 cycles
cpu0_ITLB TOTAL     ACCESS:    7987590  HIT:    7963423  MISS:      24167
cpu0_ITLB LOAD      ACCESS:    7987590  HIT:    7963423  MISS:      24167
cpu0_ITLB RFO       ACCESS:          0  HIT:          0  MISS:          0
cpu0_ITLB PREFETCH  ACCESS:          0  HIT:          0  MISS:          0
cpu0_ITLB WRITEBACK ACCESS:          0  HIT:          0  MISS:          0
cpu0_ITLB TRANSLATION ACCESS:          0  HIT:          0  MISS:          0
cpu0_ITLB PREFETCH  REQUESTED:          0  ISSUED:          0  USEFUL:          0  USELESS:          0
cpu0_ITLB AVERAGE MISS LATENCY: 10.8417 cycles
cpu0_L1I TOTAL     ACCESS:    1939507  HIT:    1876653  MISS:      62854
cpu0_L1I LOAD      ACCESS:    1939507  HIT:    1876653  MISS:      62854
cpu0_L1I RFO       ACCESS:          0  HIT:          0  MISS:          0
cpu0_L1I PREFETCH  ACCESS:          0  HIT:          0  MISS:          0
cpu0_L1I WRITEBACK ACCESS:          0  HIT:          0  MISS:          0
cpu0_L1I TRANSLATION ACCESS:          0  HIT:          0  MISS:          0
cpu0_L1I PREFETCH  REQUESTED:          0  ISSUED:          0  USEFUL:          0  USELESS:          0
cpu0_L1I AVERAGE MISS LATENCY: 42.9605 cycles
cpu0_STLB TOTAL     ACCESS:    1456048  HIT:      23499  MISS:    1432549
cpu0_STLB LOAD      ACCESS:    1454486  HIT:      22754  MISS:    1431732
cpu0_STLB RFO       ACCESS:       1562  HIT:        745  MISS:        817
cpu0_STLB PREFETCH  ACCESS:          0  HIT:          0  MISS:          0
cpu0_STLB WRITEBACK ACCESS:          0  HIT:          0  MISS:          0
cpu0_STLB TRANSLATION ACCESS:          0  HIT:          0  MISS:          0
cpu0_STLB PREFETCH  REQUESTED:          0  ISSUED:          0  USEFUL:          0  USELESS:          0
cpu0_STLB AVERAGE MISS LATENCY: 8.11567 cycles
cpu0_L1D TOTAL     ACCESS:   12549533  HIT:   10059630  MISS:    2489903
cpu0_L1D LOAD      ACCESS:    7279127  HIT:    4827941  MISS:    2451186
cpu0_L1D RFO       ACCESS:    4652758  HIT:    4615030  MISS:      37728
cpu0_L1D PREFETCH  ACCESS:          0  HIT:          0  MISS:          0
cpu0_L1D WRITEBACK ACCESS:          0  HIT:          0  MISS:          0
cpu0_L1D TRANSLATION ACCESS:     617648  HIT:     616659  MISS:        989
cpu0_L1D PREFETCH  REQUESTED:          0  ISSUED:          0  USEFUL:          0  USELESS:          0
cpu0_L1D AVERAGE MISS LATENCY: 64.4507 cycles
cpu0_L2C TOTAL     ACCESS:    2633701  HIT:     114309  MISS:    2519392
cpu0_L2C LOAD      ACCESS:    2514039  HIT:      32378  MISS:    2481661
cpu0_L2C RFO       ACCESS:      37728  HIT:        794  MISS:      36934
cpu0_L2C PREFETCH  ACCESS:          0  HIT:          0  MISS:          0
cpu0_L2C WRITEBACK ACCESS:      80945  HIT:      80945  MISS:          0
cpu0_L2C TRANSLATION ACCESS:        989  HIT:        192  MISS:        797
cpu0_L2C PREFETCH  REQUESTED:          0  ISSUED:          0  USEFUL:          0  USELESS:          0
cpu0_L2C AVERAGE MISS LATENCY: 52.951 cycles
LLC TOTAL     ACCESS:    2598931  HIT:    2326374  MISS:     272557
LLC LOAD      ACCESS:    2481660  HIT:    2232264  MISS:     249396
LLC RFO       ACCESS:      36934  HIT:      20331  MISS:      16603
LLC PREFETCH  ACCESS:          0  HIT:          0  MISS:          0
LLC WRITEBACK ACCESS:      79540  HIT:      73030  MISS:       6510
LLC TRANSLATION ACCESS:        797  HIT:        749  MISS:         48
LLC PREFETCH  REQUESTED:          0  ISSUED:          0  USEFUL:          0  USELESS:          0
LLC AVERAGE MISS LATENCY: 295.252 cycles
OPTgen accesses: 44261
OPTgen hits: 38406
OPTgen hit rate: 86.7716


Insertion Distribution: 
	LOAD 111431 0 123610 85136 
	RFO 2842 0 6363 9246 
	PREF 0 0 0 0 
	WRITEBACK 0 0 0 6695 
	TRANSLATION 12 0 68 4 
Total Prefetch Downgrades: 0
DIP stats:
h_count: 343575(0.118245)
s_count: 2562036(0.881755)
total: 2905611
hm_count: 7859
sm_count: 6149

DRAM Statistics
 CHANNEL 0
 RQ ROW_BUFFER_HIT:      23613  ROW_BUFFER_MISS:     241016
 DBUS AVG_CONGESTED_CYCLE:    3.94729
 WQ ROW_BUFFER_HIT:       5284  ROW_BUFFER_MISS:      42112  FULL:          0


CPU 0 Branch Prediction Accuracy: 97.4293% MPKI: 8.26178 Average ROB Occupancy at Mispredict: 56.9888
Branch type MPKI
BRANCH_DIRECT_JUMP: 0.00037
BRANCH_INDIRECT: 0.12485
BRANCH_CONDITIONAL: 8.10493
BRANCH_DIRECT_CALL: 0.00326
BRANCH_INDIRECT_CALL: 0.00558
BRANCH_RETURN: 0.02279

