
*** ChampSim Multicore Out-of-Order Simulator ***

Warmup Instructions: 10000000
Simulation Instructions: 100000000
Number of CPUs: 1
Off-chip DRAM Size: 4 GiB Channels: 1 Width: 64-bit Data Rate: 3200 MT/s

VirtualMemory physical capacity: 8588881920 num_ppages: 2096895
VirtualMemory page size: 4096 log2_page_size: 12

CPU 0 runs /datasets/cs240c-wi22-a00-public/data/Assignment2/lbm_564B.trace.xz
CPU 0 Bimodal branch predictor
Basic BTB sets: 1024 ways: 8 indirect buffer size: 4096 RAS size: 64
Initialize Hawkeye state
Initialize SRRIP state
Heartbeat CPU 0 instructions: 10000000 cycles: 2507073 heartbeat IPC: 3.98872 cumulative IPC: 3.98872 (Simulation time: 0 hr 0 min 17 sec) 

Warmup complete CPU 0 instructions: 10000004 cycles: 2507074 (Simulation time: 0 hr 0 min 17 sec) 

Heartbeat CPU 0 instructions: 20000004 cycles: 36520538 heartbeat IPC: 0.294001 cumulative IPC: 0.294001 (Simulation time: 0 hr 1 min 52 sec) 
Heartbeat CPU 0 instructions: 30000000 cycles: 92290990 heartbeat IPC: 0.179306 cumulative IPC: 0.222757 (Simulation time: 0 hr 5 min 1 sec) 
Heartbeat CPU 0 instructions: 40000000 cycles: 124495861 heartbeat IPC: 0.310512 cumulative IPC: 0.245924 (Simulation time: 0 hr 6 min 32 sec) 
Heartbeat CPU 0 instructions: 50000000 cycles: 155526160 heartbeat IPC: 0.322266 cumulative IPC: 0.261405 (Simulation time: 0 hr 8 min 0 sec) 
Heartbeat CPU 0 instructions: 60000001 cycles: 187474499 heartbeat IPC: 0.313005 cumulative IPC: 0.270318 (Simulation time: 0 hr 9 min 29 sec) 
Heartbeat CPU 0 instructions: 70000002 cycles: 220415704 heartbeat IPC: 0.303571 cumulative IPC: 0.275345 (Simulation time: 0 hr 11 min 3 sec) 
Heartbeat CPU 0 instructions: 80000004 cycles: 260390940 heartbeat IPC: 0.250155 cumulative IPC: 0.27144 (Simulation time: 0 hr 12 min 56 sec) 
Heartbeat CPU 0 instructions: 90000003 cycles: 294253302 heartbeat IPC: 0.295313 cumulative IPC: 0.274211 (Simulation time: 0 hr 14 min 36 sec) 
Heartbeat CPU 0 instructions: 100000004 cycles: 327560935 heartbeat IPC: 0.300232 cumulative IPC: 0.276877 (Simulation time: 0 hr 16 min 18 sec) 
Heartbeat CPU 0 instructions: 110000003 cycles: 366315091 heartbeat IPC: 0.258037 cumulative IPC: 0.27487 (Simulation time: 0 hr 18 min 13 sec) 
Finished CPU 0 instructions: 100000004 cycles: 363808018 cumulative IPC: 0.27487 (Simulation time: 0 hr 18 min 13 sec) 

ChampSim completed all CPUs

Region of Interest Statistics

CPU 0 cumulative IPC: 0.27487 instructions: 100000004 cycles: 363808018
cpu0_DTLB TOTAL     ACCESS:   13900207  HIT:   13847433  MISS:      52774
cpu0_DTLB LOAD      ACCESS:    6992976  HIT:    6979777  MISS:      13199
cpu0_DTLB RFO       ACCESS:    6907231  HIT:    6867656  MISS:      39575
cpu0_DTLB PREFETCH  ACCESS:          0  HIT:          0  MISS:          0
cpu0_DTLB WRITEBACK ACCESS:          0  HIT:          0  MISS:          0
cpu0_DTLB TRANSLATION ACCESS:          0  HIT:          0  MISS:          0
cpu0_DTLB PREFETCH  REQUESTED:          0  ISSUED:          0  USEFUL:          0  USELESS:          0
cpu0_DTLB AVERAGE MISS LATENCY: 461.556 cycles
cpu0_ITLB TOTAL     ACCESS:     150097  HIT:     150096  MISS:          1
cpu0_ITLB LOAD      ACCESS:     150097  HIT:     150096  MISS:          1
cpu0_ITLB RFO       ACCESS:          0  HIT:          0  MISS:          0
cpu0_ITLB PREFETCH  ACCESS:          0  HIT:          0  MISS:          0
cpu0_ITLB WRITEBACK ACCESS:          0  HIT:          0  MISS:          0
cpu0_ITLB TRANSLATION ACCESS:          0  HIT:          0  MISS:          0
cpu0_ITLB PREFETCH  REQUESTED:          0  ISSUED:          0  USEFUL:          0  USELESS:          0
cpu0_ITLB AVERAGE MISS LATENCY: 663 cycles
cpu0_L1I TOTAL     ACCESS:         12  HIT:          6  MISS:          6
cpu0_L1I LOAD      ACCESS:         12  HIT:          6  MISS:          6
cpu0_L1I RFO       ACCESS:          0  HIT:          0  MISS:          0
cpu0_L1I PREFETCH  ACCESS:          0  HIT:          0  MISS:          0
cpu0_L1I WRITEBACK ACCESS:          0  HIT:          0  MISS:          0
cpu0_L1I TRANSLATION ACCESS:          0  HIT:          0  MISS:          0
cpu0_L1I PREFETCH  REQUESTED:          0  ISSUED:          0  USEFUL:          0  USELESS:          0
cpu0_L1I AVERAGE MISS LATENCY: 733.5 cycles
cpu0_STLB TOTAL     ACCESS:      52775  HIT:          5  MISS:      52770
cpu0_STLB LOAD      ACCESS:      13200  HIT:          0  MISS:      13200
cpu0_STLB RFO       ACCESS:      39575  HIT:          5  MISS:      39570
cpu0_STLB PREFETCH  ACCESS:          0  HIT:          0  MISS:          0
cpu0_STLB WRITEBACK ACCESS:          0  HIT:          0  MISS:          0
cpu0_STLB TRANSLATION ACCESS:          0  HIT:          0  MISS:          0
cpu0_STLB PREFETCH  REQUESTED:          0  ISSUED:          0  USEFUL:          0  USELESS:          0
cpu0_STLB AVERAGE MISS LATENCY: 452.603 cycles
cpu0_L1D TOTAL     ACCESS:   15375724  HIT:    9809528  MISS:    5566196
cpu0_L1D LOAD      ACCESS:    4367298  HIT:    3523710  MISS:     843588
cpu0_L1D RFO       ACCESS:   10955670  HIT:    6233113  MISS:    4722557
cpu0_L1D PREFETCH  ACCESS:          0  HIT:          0  MISS:          0
cpu0_L1D WRITEBACK ACCESS:          0  HIT:          0  MISS:          0
cpu0_L1D TRANSLATION ACCESS:      52756  HIT:      52705  MISS:         51
cpu0_L1D PREFETCH  REQUESTED:          0  ISSUED:          0  USEFUL:          0  USELESS:          0
cpu0_L1D AVERAGE MISS LATENCY: 498.246 cycles
cpu0_L2C TOTAL     ACCESS:   10288757  HIT:    6913172  MISS:    3375585
cpu0_L2C LOAD      ACCESS:     843594  HIT:        220  MISS:     843374
cpu0_L2C RFO       ACCESS:    4722556  HIT:    2190519  MISS:    2532037
cpu0_L2C PREFETCH  ACCESS:          0  HIT:          0  MISS:          0
cpu0_L2C WRITEBACK ACCESS:    4722556  HIT:    4722433  MISS:        123
cpu0_L2C TRANSLATION ACCESS:         51  HIT:          0  MISS:         51
cpu0_L2C PREFETCH  REQUESTED:          0  ISSUED:          0  USEFUL:          0  USELESS:          0
cpu0_L2C AVERAGE MISS LATENCY: 802.152 cycles
LLC TOTAL     ACCESS:    5907540  HIT:    1194823  MISS:    4712717
LLC LOAD      ACCESS:     843374  HIT:         55  MISS:     843319
LLC RFO       ACCESS:    2532037  HIT:     449493  MISS:    2082544
LLC PREFETCH  ACCESS:          0  HIT:          0  MISS:          0
LLC WRITEBACK ACCESS:    2532078  HIT:     745251  MISS:    1786827
LLC TRANSLATION ACCESS:         51  HIT:         24  MISS:         27
LLC PREFETCH  REQUESTED:          0  ISSUED:          0  USEFUL:          0  USELESS:          0
LLC AVERAGE MISS LATENCY: 559.517 cycles
OPTgen accesses: 57393
OPTgen hits: 1390
OPTgen hit rate: 2.4219


Insertion Distribution: 
	LOAD 0 0 10073 907281 
	RFO 191907 0 457185 1632915 
	PREF 0 0 0 0 
	WRITEBACK 0 0 0 1925280 
	TRANSLATION 0 0 33 8 
Total Prefetch Downgrades: 0
DIP stats:
h_count: 5740159(0.893998)
s_count: 680618(0.106002)
total: 6420777
hm_count: 79153
sm_count: 77491

DRAM Statistics
 CHANNEL 0
 RQ ROW_BUFFER_HIT:      55586  ROW_BUFFER_MISS:    2870216
 DBUS AVG_CONGESTED_CYCLE:    3.99685
 WQ ROW_BUFFER_HIT:      31032  ROW_BUFFER_MISS:    2199219  FULL:          0


CPU 0 Branch Prediction Accuracy: 99.0902% MPKI: 0.11542 Average ROB Occupancy at Mispredict: 182.159
Branch type MPKI
BRANCH_DIRECT_JUMP: 2e-05
BRANCH_INDIRECT: 0
BRANCH_CONDITIONAL: 0.11536
BRANCH_DIRECT_CALL: 2e-05
BRANCH_INDIRECT_CALL: 0
BRANCH_RETURN: 2e-05

