
*** ChampSim Multicore Out-of-Order Simulator ***

Warmup Instructions: 10000000
Simulation Instructions: 100000000
Number of CPUs: 1
Off-chip DRAM Size: 4 GiB Channels: 1 Width: 64-bit Data Rate: 3200 MT/s

VirtualMemory physical capacity: 8588881920 num_ppages: 2096895
VirtualMemory page size: 4096 log2_page_size: 12

CPU 0 runs /datasets/cs240c-wi22-a00-public/data/Assignment2/leslie3d_1186B.trace.xz
CPU 0 Bimodal branch predictor
Basic BTB sets: 1024 ways: 8 indirect buffer size: 4096 RAS size: 64
Initialize Hawkeye state
Initialize SRRIP state
Heartbeat CPU 0 instructions: 10000000 cycles: 4308797 heartbeat IPC: 2.32083 cumulative IPC: 2.32083 (Simulation time: 0 hr 0 min 57 sec) 

Warmup complete CPU 0 instructions: 10000005 cycles: 4308798 (Simulation time: 0 hr 0 min 57 sec) 

Heartbeat CPU 0 instructions: 20000000 cycles: 18270236 heartbeat IPC: 0.716259 cumulative IPC: 0.716258 (Simulation time: 0 hr 2 min 37 sec) 
Heartbeat CPU 0 instructions: 30000000 cycles: 32422753 heartbeat IPC: 0.706588 cumulative IPC: 0.71139 (Simulation time: 0 hr 4 min 19 sec) 
Heartbeat CPU 0 instructions: 40000004 cycles: 46238665 heartbeat IPC: 0.723803 cumulative IPC: 0.71548 (Simulation time: 0 hr 5 min 59 sec) 
Heartbeat CPU 0 instructions: 50000002 cycles: 62674946 heartbeat IPC: 0.60841 cumulative IPC: 0.685329 (Simulation time: 0 hr 7 min 42 sec) 
Heartbeat CPU 0 instructions: 60000000 cycles: 97806433 heartbeat IPC: 0.284645 cumulative IPC: 0.534773 (Simulation time: 0 hr 10 min 41 sec) 
Heartbeat CPU 0 instructions: 70000000 cycles: 126470138 heartbeat IPC: 0.348873 cumulative IPC: 0.491154 (Simulation time: 0 hr 13 min 19 sec) 
Heartbeat CPU 0 instructions: 80000003 cycles: 136700154 heartbeat IPC: 0.977516 cumulative IPC: 0.528735 (Simulation time: 0 hr 14 min 46 sec) 
Heartbeat CPU 0 instructions: 90000002 cycles: 146884690 heartbeat IPC: 0.981881 cumulative IPC: 0.561105 (Simulation time: 0 hr 16 min 12 sec) 
Heartbeat CPU 0 instructions: 100000000 cycles: 157043770 heartbeat IPC: 0.984341 cumulative IPC: 0.589256 (Simulation time: 0 hr 17 min 40 sec) 
Heartbeat CPU 0 instructions: 110000000 cycles: 167245415 heartbeat IPC: 0.980234 cumulative IPC: 0.613736 (Simulation time: 0 hr 19 min 7 sec) 
Finished CPU 0 instructions: 100000000 cycles: 162936618 cumulative IPC: 0.613736 (Simulation time: 0 hr 19 min 7 sec) 

ChampSim completed all CPUs

Region of Interest Statistics

CPU 0 cumulative IPC: 0.613736 instructions: 100000000 cycles: 162936618
cpu0_DTLB TOTAL     ACCESS:   27955180  HIT:   27857497  MISS:      97683
cpu0_DTLB LOAD      ACCESS:   23290153  HIT:   23204221  MISS:      85932
cpu0_DTLB RFO       ACCESS:    4665027  HIT:    4653276  MISS:      11751
cpu0_DTLB PREFETCH  ACCESS:          0  HIT:          0  MISS:          0
cpu0_DTLB WRITEBACK ACCESS:          0  HIT:          0  MISS:          0
cpu0_DTLB TRANSLATION ACCESS:          0  HIT:          0  MISS:          0
cpu0_DTLB PREFETCH  REQUESTED:          0  ISSUED:          0  USEFUL:          0  USELESS:          0
cpu0_DTLB AVERAGE MISS LATENCY: 52.2209 cycles
cpu0_ITLB TOTAL     ACCESS:    2917664  HIT:    2917651  MISS:         13
cpu0_ITLB LOAD      ACCESS:    2917664  HIT:    2917651  MISS:         13
cpu0_ITLB RFO       ACCESS:          0  HIT:          0  MISS:          0
cpu0_ITLB PREFETCH  ACCESS:          0  HIT:          0  MISS:          0
cpu0_ITLB WRITEBACK ACCESS:          0  HIT:          0  MISS:          0
cpu0_ITLB TRANSLATION ACCESS:          0  HIT:          0  MISS:          0
cpu0_ITLB PREFETCH  REQUESTED:          0  ISSUED:          0  USEFUL:          0  USELESS:          0
cpu0_ITLB AVERAGE MISS LATENCY: 294.231 cycles
cpu0_L1I TOTAL     ACCESS:    1738243  HIT:    1737863  MISS:        380
cpu0_L1I LOAD      ACCESS:    1738243  HIT:    1737863  MISS:        380
cpu0_L1I RFO       ACCESS:          0  HIT:          0  MISS:          0
cpu0_L1I PREFETCH  ACCESS:          0  HIT:          0  MISS:          0
cpu0_L1I WRITEBACK ACCESS:          0  HIT:          0  MISS:          0
cpu0_L1I TRANSLATION ACCESS:          0  HIT:          0  MISS:          0
cpu0_L1I PREFETCH  REQUESTED:          0  ISSUED:          0  USEFUL:          0  USELESS:          0
cpu0_L1I AVERAGE MISS LATENCY: 329.203 cycles
cpu0_STLB TOTAL     ACCESS:      97696  HIT:      70294  MISS:      27402
cpu0_STLB LOAD      ACCESS:      85945  HIT:      63218  MISS:      22727
cpu0_STLB RFO       ACCESS:      11751  HIT:       7076  MISS:       4675
cpu0_STLB PREFETCH  ACCESS:          0  HIT:          0  MISS:          0
cpu0_STLB WRITEBACK ACCESS:          0  HIT:          0  MISS:          0
cpu0_STLB TRANSLATION ACCESS:          0  HIT:          0  MISS:          0
cpu0_STLB PREFETCH  REQUESTED:          0  ISSUED:          0  USEFUL:          0  USELESS:          0
cpu0_STLB AVERAGE MISS LATENCY: 154.155 cycles
cpu0_L1D TOTAL     ACCESS:   27014394  HIT:   23111478  MISS:    3902916
cpu0_L1D LOAD      ACCESS:   17788409  HIT:   14604492  MISS:    3183917
cpu0_L1D RFO       ACCESS:    9201406  HIT:    8485850  MISS:     715556
cpu0_L1D PREFETCH  ACCESS:          0  HIT:          0  MISS:          0
cpu0_L1D WRITEBACK ACCESS:          0  HIT:          0  MISS:          0
cpu0_L1D TRANSLATION ACCESS:      24579  HIT:      21136  MISS:       3443
cpu0_L1D PREFETCH  REQUESTED:          0  ISSUED:          0  USEFUL:          0  USELESS:          0
cpu0_L1D AVERAGE MISS LATENCY: 355.006 cycles
cpu0_L2C TOTAL     ACCESS:    4956458  HIT:    2399159  MISS:    2557299
cpu0_L2C LOAD      ACCESS:    3184245  HIT:    1037036  MISS:    2147209
cpu0_L2C RFO       ACCESS:     715248  HIT:     307577  MISS:     407671
cpu0_L2C PREFETCH  ACCESS:          0  HIT:          0  MISS:          0
cpu0_L2C WRITEBACK ACCESS:    1053522  HIT:    1051313  MISS:       2209
cpu0_L2C TRANSLATION ACCESS:       3443  HIT:       3233  MISS:        210
cpu0_L2C PREFETCH  REQUESTED:          0  ISSUED:          0  USEFUL:          0  USELESS:          0
cpu0_L2C AVERAGE MISS LATENCY: 525.008 cycles
LLC TOTAL     ACCESS:    3217427  HIT:     839541  MISS:    2377886
LLC LOAD      ACCESS:    2147202  HIT:     542066  MISS:    1605136
LLC RFO       ACCESS:     407659  HIT:     116549  MISS:     291110
LLC PREFETCH  ACCESS:          0  HIT:          0  MISS:          0
LLC WRITEBACK ACCESS:     662356  HIT:     180733  MISS:     481623
LLC TRANSLATION ACCESS:        210  HIT:        193  MISS:         17
LLC PREFETCH  REQUESTED:          0  ISSUED:          0  USEFUL:          0  USELESS:          0
LLC AVERAGE MISS LATENCY: 542.009 cycles
OPTgen accesses: 43409
OPTgen hits: 9573
OPTgen hit rate: 22.053


Insertion Distribution: 
	LOAD 193410 0 257675 1320251 
	RFO 1633 0 23086 268680 
	PREF 0 0 0 0 
	WRITEBACK 0 0 0 500004 
	TRANSLATION 2 0 33 1 
Total Prefetch Downgrades: 0
DIP stats:
h_count: 5(1.42842e-06)
s_count: 3500375(0.999999)
total: 3500380
hm_count: 39404
sm_count: 40108

DRAM Statistics
 CHANNEL 0
 RQ ROW_BUFFER_HIT:     219279  ROW_BUFFER_MISS:    1676908
 DBUS AVG_CONGESTED_CYCLE:    3.94806
 WQ ROW_BUFFER_HIT:      41312  ROW_BUFFER_MISS:     488451  FULL:      23525


CPU 0 Branch Prediction Accuracy: 96.8384% MPKI: 1.47634 Average ROB Occupancy at Mispredict: 311.285
Branch type MPKI
BRANCH_DIRECT_JUMP: 0.00016
BRANCH_INDIRECT: 0
BRANCH_CONDITIONAL: 1.47504
BRANCH_DIRECT_CALL: 0.00057
BRANCH_INDIRECT_CALL: 0
BRANCH_RETURN: 0.00057

