
*** ChampSim Multicore Out-of-Order Simulator ***

Warmup Instructions: 10000000
Simulation Instructions: 100000000
Number of CPUs: 1
Off-chip DRAM Size: 4 GiB Channels: 1 Width: 64-bit Data Rate: 3200 MT/s

VirtualMemory physical capacity: 8588881920 num_ppages: 2096895
VirtualMemory page size: 4096 log2_page_size: 12

CPU 0 runs /datasets/cs240c-wi22-a00-public/data/Assignment2/leslie3d_1186B.trace.xz
CPU 0 Bimodal branch predictor
Basic BTB sets: 1024 ways: 8 indirect buffer size: 4096 RAS size: 64
Initialize Hawkeye state
Initialize SRRIP state
Heartbeat CPU 0 instructions: 10000000 cycles: 4308762 heartbeat IPC: 2.32085 cumulative IPC: 2.32085 (Simulation time: 0 hr 0 min 44 sec) 

Warmup complete CPU 0 instructions: 10000002 cycles: 4308763 (Simulation time: 0 hr 0 min 44 sec) 

Heartbeat CPU 0 instructions: 20000000 cycles: 18023214 heartbeat IPC: 0.729158 cumulative IPC: 0.729158 (Simulation time: 0 hr 1 min 58 sec) 
Heartbeat CPU 0 instructions: 30000000 cycles: 31143701 heartbeat IPC: 0.762167 cumulative IPC: 0.745297 (Simulation time: 0 hr 3 min 10 sec) 
Heartbeat CPU 0 instructions: 40000004 cycles: 43737647 heartbeat IPC: 0.794033 cumulative IPC: 0.760864 (Simulation time: 0 hr 4 min 21 sec) 
Heartbeat CPU 0 instructions: 50000002 cycles: 59866843 heartbeat IPC: 0.619994 cumulative IPC: 0.719967 (Simulation time: 0 hr 5 min 37 sec) 
Heartbeat CPU 0 instructions: 60000000 cycles: 94980814 heartbeat IPC: 0.284787 cumulative IPC: 0.551438 (Simulation time: 0 hr 7 min 57 sec) 
Heartbeat CPU 0 instructions: 70000000 cycles: 123512065 heartbeat IPC: 0.350493 cumulative IPC: 0.503342 (Simulation time: 0 hr 9 min 57 sec) 
Heartbeat CPU 0 instructions: 80000003 cycles: 133746504 heartbeat IPC: 0.977093 cumulative IPC: 0.540801 (Simulation time: 0 hr 11 min 1 sec) 
Heartbeat CPU 0 instructions: 90000002 cycles: 144016008 heartbeat IPC: 0.973757 cumulative IPC: 0.572626 (Simulation time: 0 hr 12 min 4 sec) 
Heartbeat CPU 0 instructions: 100000000 cycles: 154239644 heartbeat IPC: 0.978125 cumulative IPC: 0.600277 (Simulation time: 0 hr 13 min 7 sec) 
Heartbeat CPU 0 instructions: 110000000 cycles: 164488180 heartbeat IPC: 0.975749 cumulative IPC: 0.6243 (Simulation time: 0 hr 14 min 10 sec) 
Finished CPU 0 instructions: 100000003 cycles: 160179418 cumulative IPC: 0.6243 (Simulation time: 0 hr 14 min 10 sec) 

ChampSim completed all CPUs

Region of Interest Statistics

CPU 0 cumulative IPC: 0.6243 instructions: 100000003 cycles: 160179418
cpu0_DTLB TOTAL     ACCESS:   27963478  HIT:   27865862  MISS:      97616
cpu0_DTLB LOAD      ACCESS:   23297875  HIT:   23212009  MISS:      85866
cpu0_DTLB RFO       ACCESS:    4665603  HIT:    4653853  MISS:      11750
cpu0_DTLB PREFETCH  ACCESS:          0  HIT:          0  MISS:          0
cpu0_DTLB WRITEBACK ACCESS:          0  HIT:          0  MISS:          0
cpu0_DTLB TRANSLATION ACCESS:          0  HIT:          0  MISS:          0
cpu0_DTLB PREFETCH  REQUESTED:          0  ISSUED:          0  USEFUL:          0  USELESS:          0
cpu0_DTLB AVERAGE MISS LATENCY: 52.4133 cycles
cpu0_ITLB TOTAL     ACCESS:    2903351  HIT:    2903338  MISS:         13
cpu0_ITLB LOAD      ACCESS:    2903351  HIT:    2903338  MISS:         13
cpu0_ITLB RFO       ACCESS:          0  HIT:          0  MISS:          0
cpu0_ITLB PREFETCH  ACCESS:          0  HIT:          0  MISS:          0
cpu0_ITLB WRITEBACK ACCESS:          0  HIT:          0  MISS:          0
cpu0_ITLB TRANSLATION ACCESS:          0  HIT:          0  MISS:          0
cpu0_ITLB PREFETCH  REQUESTED:          0  ISSUED:          0  USEFUL:          0  USELESS:          0
cpu0_ITLB AVERAGE MISS LATENCY: 287.385 cycles
cpu0_L1I TOTAL     ACCESS:    1736800  HIT:    1736420  MISS:        380
cpu0_L1I LOAD      ACCESS:    1736800  HIT:    1736420  MISS:        380
cpu0_L1I RFO       ACCESS:          0  HIT:          0  MISS:          0
cpu0_L1I PREFETCH  ACCESS:          0  HIT:          0  MISS:          0
cpu0_L1I WRITEBACK ACCESS:          0  HIT:          0  MISS:          0
cpu0_L1I TRANSLATION ACCESS:          0  HIT:          0  MISS:          0
cpu0_L1I PREFETCH  REQUESTED:          0  ISSUED:          0  USEFUL:          0  USELESS:          0
cpu0_L1I AVERAGE MISS LATENCY: 310.461 cycles
cpu0_STLB TOTAL     ACCESS:      97629  HIT:      70227  MISS:      27402
cpu0_STLB LOAD      ACCESS:      85879  HIT:      63152  MISS:      22727
cpu0_STLB RFO       ACCESS:      11750  HIT:       7075  MISS:       4675
cpu0_STLB PREFETCH  ACCESS:          0  HIT:          0  MISS:          0
cpu0_STLB WRITEBACK ACCESS:          0  HIT:          0  MISS:          0
cpu0_STLB TRANSLATION ACCESS:          0  HIT:          0  MISS:          0
cpu0_STLB PREFETCH  REQUESTED:          0  ISSUED:          0  USEFUL:          0  USELESS:          0
cpu0_STLB AVERAGE MISS LATENCY: 154.731 cycles
cpu0_L1D TOTAL     ACCESS:   27038651  HIT:   23135786  MISS:    3902865
cpu0_L1D LOAD      ACCESS:   17814487  HIT:   14630663  MISS:    3183824
cpu0_L1D RFO       ACCESS:    9199631  HIT:    8484033  MISS:     715598
cpu0_L1D PREFETCH  ACCESS:          0  HIT:          0  MISS:          0
cpu0_L1D WRITEBACK ACCESS:          0  HIT:          0  MISS:          0
cpu0_L1D TRANSLATION ACCESS:      24533  HIT:      21090  MISS:       3443
cpu0_L1D PREFETCH  REQUESTED:          0  ISSUED:          0  USEFUL:          0  USELESS:          0
cpu0_L1D AVERAGE MISS LATENCY: 347.618 cycles
cpu0_L2C TOTAL     ACCESS:    4956405  HIT:    2399251  MISS:    2557154
cpu0_L2C LOAD      ACCESS:    3184156  HIT:    1037083  MISS:    2147073
cpu0_L2C RFO       ACCESS:     715294  HIT:     307630  MISS:     407664
cpu0_L2C PREFETCH  ACCESS:          0  HIT:          0  MISS:          0
cpu0_L2C WRITEBACK ACCESS:    1053512  HIT:    1051305  MISS:       2207
cpu0_L2C TRANSLATION ACCESS:       3443  HIT:       3233  MISS:        210
cpu0_L2C PREFETCH  REQUESTED:          0  ISSUED:          0  USEFUL:          0  USELESS:          0
cpu0_L2C AVERAGE MISS LATENCY: 513.753 cycles
LLC TOTAL     ACCESS:    3217288  HIT:     885789  MISS:    2331499
LLC LOAD      ACCESS:    2147066  HIT:     569139  MISS:    1577927
LLC RFO       ACCESS:     407654  HIT:     114149  MISS:     293505
LLC PREFETCH  ACCESS:          0  HIT:          0  MISS:          0
LLC WRITEBACK ACCESS:     662358  HIT:     202397  MISS:     459961
LLC TRANSLATION ACCESS:        210  HIT:        104  MISS:        106
LLC PREFETCH  REQUESTED:          0  ISSUED:          0  USEFUL:          0  USELESS:          0
LLC AVERAGE MISS LATENCY: 540.424 cycles
OPTgen accesses: 43410
OPTgen hits: 9570
OPTgen hit rate: 22.0456


Insertion Distribution: 
	LOAD 198919 0 240955 1306979 
	RFO 4359 0 22326 269984 
	PREF 0 0 0 0 
	WRITEBACK 0 0 0 478420 
	TRANSLATION 8 0 46 71 
Total Prefetch Downgrades: 0
DIP stats:
h_count: 2125097(0.607129)
s_count: 1375144(0.392871)
total: 3500241
hm_count: 39381
sm_count: 40048

DRAM Statistics
 CHANNEL 0
 RQ ROW_BUFFER_HIT:     211007  ROW_BUFFER_MISS:    1660380
 DBUS AVG_CONGESTED_CYCLE:    3.95049
 WQ ROW_BUFFER_HIT:      38637  ROW_BUFFER_MISS:     498082  FULL:      19406


CPU 0 Branch Prediction Accuracy: 96.8384% MPKI: 1.47634 Average ROB Occupancy at Mispredict: 311.379
Branch type MPKI
BRANCH_DIRECT_JUMP: 0.00016
BRANCH_INDIRECT: 0
BRANCH_CONDITIONAL: 1.47504
BRANCH_DIRECT_CALL: 0.00057
BRANCH_INDIRECT_CALL: 0
BRANCH_RETURN: 0.00057

