
*** ChampSim Multicore Out-of-Order Simulator ***

Warmup Instructions: 10000000
Simulation Instructions: 100000000
Number of CPUs: 1
Off-chip DRAM Size: 4 GiB Channels: 1 Width: 64-bit Data Rate: 3200 MT/s

VirtualMemory physical capacity: 8588881920 num_ppages: 2096895
VirtualMemory page size: 4096 log2_page_size: 12

CPU 0 runs /datasets/cs240c-wi22-a00-public/data/Assignment2/soplex_205B.trace.xz
CPU 0 Bimodal branch predictor
Basic BTB sets: 1024 ways: 8 indirect buffer size: 4096 RAS size: 64
Initialize Hawkeye state
Initialize SRRIP state
Heartbeat CPU 0 instructions: 10000003 cycles: 2865176 heartbeat IPC: 3.49019 cumulative IPC: 3.49019 (Simulation time: 0 hr 0 min 31 sec) 

Warmup complete CPU 0 instructions: 10000003 cycles: 2865176 (Simulation time: 0 hr 0 min 31 sec) 

Heartbeat CPU 0 instructions: 20000004 cycles: 47155322 heartbeat IPC: 0.225784 cumulative IPC: 0.225784 (Simulation time: 0 hr 3 min 18 sec) 
Heartbeat CPU 0 instructions: 30000004 cycles: 82705094 heartbeat IPC: 0.281296 cumulative IPC: 0.250501 (Simulation time: 0 hr 4 min 52 sec) 
Heartbeat CPU 0 instructions: 40000004 cycles: 110823227 heartbeat IPC: 0.355642 cumulative IPC: 0.277886 (Simulation time: 0 hr 6 min 24 sec) 
Heartbeat CPU 0 instructions: 50000001 cycles: 143370985 heartbeat IPC: 0.307241 cumulative IPC: 0.284686 (Simulation time: 0 hr 8 min 3 sec) 
Heartbeat CPU 0 instructions: 60000000 cycles: 170170442 heartbeat IPC: 0.373142 cumulative IPC: 0.298855 (Simulation time: 0 hr 9 min 22 sec) 
Heartbeat CPU 0 instructions: 70000000 cycles: 200400600 heartbeat IPC: 0.330795 cumulative IPC: 0.303743 (Simulation time: 0 hr 10 min 55 sec) 
Heartbeat CPU 0 instructions: 80000003 cycles: 228151778 heartbeat IPC: 0.360345 cumulative IPC: 0.310715 (Simulation time: 0 hr 12 min 10 sec) 
Heartbeat CPU 0 instructions: 90000000 cycles: 259707493 heartbeat IPC: 0.3169 cumulative IPC: 0.311475 (Simulation time: 0 hr 13 min 47 sec) 
Heartbeat CPU 0 instructions: 100000002 cycles: 286316986 heartbeat IPC: 0.375806 cumulative IPC: 0.317514 (Simulation time: 0 hr 15 min 2 sec) 
Heartbeat CPU 0 instructions: 110000000 cycles: 338304213 heartbeat IPC: 0.192355 cumulative IPC: 0.298117 (Simulation time: 0 hr 17 min 28 sec) 
Finished CPU 0 instructions: 100000002 cycles: 335439038 cumulative IPC: 0.298117 (Simulation time: 0 hr 17 min 28 sec) 

ChampSim completed all CPUs

Region of Interest Statistics

CPU 0 cumulative IPC: 0.298117 instructions: 100000002 cycles: 335439038
cpu0_DTLB TOTAL     ACCESS:   22262358  HIT:   21299838  MISS:     962520
cpu0_DTLB LOAD      ACCESS:   16523758  HIT:   15782616  MISS:     741142
cpu0_DTLB RFO       ACCESS:    5738600  HIT:    5517222  MISS:     221378
cpu0_DTLB PREFETCH  ACCESS:          0  HIT:          0  MISS:          0
cpu0_DTLB WRITEBACK ACCESS:          0  HIT:          0  MISS:          0
cpu0_DTLB TRANSLATION ACCESS:          0  HIT:          0  MISS:          0
cpu0_DTLB PREFETCH  REQUESTED:          0  ISSUED:          0  USEFUL:          0  USELESS:          0
cpu0_DTLB AVERAGE MISS LATENCY: 15.7718 cycles
cpu0_ITLB TOTAL     ACCESS:    7971596  HIT:    7971579  MISS:         17
cpu0_ITLB LOAD      ACCESS:    7971596  HIT:    7971579  MISS:         17
cpu0_ITLB RFO       ACCESS:          0  HIT:          0  MISS:          0
cpu0_ITLB PREFETCH  ACCESS:          0  HIT:          0  MISS:          0
cpu0_ITLB WRITEBACK ACCESS:          0  HIT:          0  MISS:          0
cpu0_ITLB TRANSLATION ACCESS:          0  HIT:          0  MISS:          0
cpu0_ITLB PREFETCH  REQUESTED:          0  ISSUED:          0  USEFUL:          0  USELESS:          0
cpu0_ITLB AVERAGE MISS LATENCY: 353.412 cycles
cpu0_L1I TOTAL     ACCESS:     823755  HIT:     822982  MISS:        773
cpu0_L1I LOAD      ACCESS:     823755  HIT:     822982  MISS:        773
cpu0_L1I RFO       ACCESS:          0  HIT:          0  MISS:          0
cpu0_L1I PREFETCH  ACCESS:          0  HIT:          0  MISS:          0
cpu0_L1I WRITEBACK ACCESS:          0  HIT:          0  MISS:          0
cpu0_L1I TRANSLATION ACCESS:          0  HIT:          0  MISS:          0
cpu0_L1I PREFETCH  REQUESTED:          0  ISSUED:          0  USEFUL:          0  USELESS:          0
cpu0_L1I AVERAGE MISS LATENCY: 337.947 cycles
cpu0_STLB TOTAL     ACCESS:     962537  HIT:     806977  MISS:     155560
cpu0_STLB LOAD      ACCESS:     741159  HIT:     596425  MISS:     144734
cpu0_STLB RFO       ACCESS:     221378  HIT:     210552  MISS:      10826
cpu0_STLB PREFETCH  ACCESS:          0  HIT:          0  MISS:          0
cpu0_STLB WRITEBACK ACCESS:          0  HIT:          0  MISS:          0
cpu0_STLB TRANSLATION ACCESS:          0  HIT:          0  MISS:          0
cpu0_STLB PREFETCH  REQUESTED:          0  ISSUED:          0  USEFUL:          0  USELESS:          0
cpu0_STLB AVERAGE MISS LATENCY: 41.0094 cycles
cpu0_L1D TOTAL     ACCESS:   19215486  HIT:   13424957  MISS:    5790529
cpu0_L1D LOAD      ACCESS:   12659676  HIT:    7825124  MISS:    4834552
cpu0_L1D RFO       ACCESS:    6404097  HIT:    5453763  MISS:     950334
cpu0_L1D PREFETCH  ACCESS:          0  HIT:          0  MISS:          0
cpu0_L1D WRITEBACK ACCESS:          0  HIT:          0  MISS:          0
cpu0_L1D TRANSLATION ACCESS:     151713  HIT:     146070  MISS:       5643
cpu0_L1D PREFETCH  REQUESTED:          0  ISSUED:          0  USEFUL:          0  USELESS:          0
cpu0_L1D AVERAGE MISS LATENCY: 228.5 cycles
cpu0_L2C TOTAL     ACCESS:    8360819  HIT:    3854824  MISS:    4505995
cpu0_L2C LOAD      ACCESS:    4834914  HIT:    1131145  MISS:    3703769
cpu0_L2C RFO       ACCESS:     950261  HIT:     148928  MISS:     801333
cpu0_L2C PREFETCH  ACCESS:          0  HIT:          0  MISS:          0
cpu0_L2C WRITEBACK ACCESS:    2570001  HIT:    2569929  MISS:         72
cpu0_L2C TRANSLATION ACCESS:       5643  HIT:       4822  MISS:        821
cpu0_L2C PREFETCH  REQUESTED:          0  ISSUED:          0  USEFUL:          0  USELESS:          0
cpu0_L2C AVERAGE MISS LATENCY: 279.345 cycles
LLC TOTAL     ACCESS:    6406243  HIT:    3163296  MISS:    3242947
LLC LOAD      ACCESS:    3703751  HIT:    1417460  MISS:    2286291
LLC RFO       ACCESS:     801326  HIT:     303899  MISS:     497427
LLC PREFETCH  ACCESS:          0  HIT:          0  MISS:          0
LLC WRITEBACK ACCESS:    1900345  HIT:    1441455  MISS:     458890
LLC TRANSLATION ACCESS:        821  HIT:        482  MISS:        339
LLC PREFETCH  REQUESTED:          0  ISSUED:          0  USEFUL:          0  USELESS:          0
LLC AVERAGE MISS LATENCY: 357.779 cycles
OPTgen accesses: 77362
OPTgen hits: 27559
OPTgen hit rate: 35.6234


Insertion Distribution: 
	LOAD 393060 0 461913 1741846 
	RFO 66460 0 189797 285138 
	PREF 0 0 0 0 
	WRITEBACK 0 0 0 508235 
	TRANSLATION 12 0 233 145 
Total Prefetch Downgrades: 0
DIP stats:
h_count: 3335008(0.473823)
s_count: 3703497(0.526177)
total: 7038505
hm_count: 57538
sm_count: 57366

DRAM Statistics
 CHANNEL 0
 RQ ROW_BUFFER_HIT:     306030  ROW_BUFFER_MISS:    2475815
 DBUS AVG_CONGESTED_CYCLE:    3.95692
 WQ ROW_BUFFER_HIT:      48066  ROW_BUFFER_MISS:    1004965  FULL:     777036


CPU 0 Branch Prediction Accuracy: 93.3985% MPKI: 13.5305 Average ROB Occupancy at Mispredict: 48.6834
Branch type MPKI
BRANCH_DIRECT_JUMP: 0.00081
BRANCH_INDIRECT: 0.00022
BRANCH_CONDITIONAL: 13.5274
BRANCH_DIRECT_CALL: 0.00058
BRANCH_INDIRECT_CALL: 0.00056
BRANCH_RETURN: 0.00094

