
*** ChampSim Multicore Out-of-Order Simulator ***

Warmup Instructions: 10000000
Simulation Instructions: 100000000
Number of CPUs: 1
Off-chip DRAM Size: 4 GiB Channels: 1 Width: 64-bit Data Rate: 3200 MT/s

VirtualMemory physical capacity: 8588881920 num_ppages: 2096895
VirtualMemory page size: 4096 log2_page_size: 12

CPU 0 runs /datasets/cs240c-wi22-a00-public/data/Assignment2/lbm_1004B.trace.xz
CPU 0 Bimodal branch predictor
Basic BTB sets: 1024 ways: 8 indirect buffer size: 4096 RAS size: 64
Initialize Hawkeye state
Initialize SRRIP state
Heartbeat CPU 0 instructions: 10000003 cycles: 2504746 heartbeat IPC: 3.99242 cumulative IPC: 3.99242 (Simulation time: 0 hr 0 min 17 sec) 

Warmup complete CPU 0 instructions: 10000003 cycles: 2504746 (Simulation time: 0 hr 0 min 17 sec) 

Heartbeat CPU 0 instructions: 20000004 cycles: 37294642 heartbeat IPC: 0.28744 cumulative IPC: 0.28744 (Simulation time: 0 hr 1 min 55 sec) 
Heartbeat CPU 0 instructions: 30000004 cycles: 68274320 heartbeat IPC: 0.322792 cumulative IPC: 0.304092 (Simulation time: 0 hr 3 min 23 sec) 
Heartbeat CPU 0 instructions: 40000004 cycles: 97484829 heartbeat IPC: 0.342343 cumulative IPC: 0.315856 (Simulation time: 0 hr 4 min 47 sec) 
Heartbeat CPU 0 instructions: 50000004 cycles: 127723772 heartbeat IPC: 0.330699 cumulative IPC: 0.31944 (Simulation time: 0 hr 6 min 12 sec) 
Heartbeat CPU 0 instructions: 60000004 cycles: 160467752 heartbeat IPC: 0.3054 cumulative IPC: 0.31653 (Simulation time: 0 hr 7 min 44 sec) 
Heartbeat CPU 0 instructions: 70000001 cycles: 196061694 heartbeat IPC: 0.280947 cumulative IPC: 0.309986 (Simulation time: 0 hr 9 min 22 sec) 
Heartbeat CPU 0 instructions: 80000000 cycles: 255055855 heartbeat IPC: 0.169508 cumulative IPC: 0.277172 (Simulation time: 0 hr 12 min 40 sec) 
Heartbeat CPU 0 instructions: 90000003 cycles: 288555287 heartbeat IPC: 0.298513 cumulative IPC: 0.279671 (Simulation time: 0 hr 14 min 14 sec) 
Heartbeat CPU 0 instructions: 100000000 cycles: 319116833 heartbeat IPC: 0.327208 cumulative IPC: 0.284259 (Simulation time: 0 hr 15 min 43 sec) 
Heartbeat CPU 0 instructions: 110000003 cycles: 356189175 heartbeat IPC: 0.269743 cumulative IPC: 0.282738 (Simulation time: 0 hr 17 min 27 sec) 
Finished CPU 0 instructions: 100000000 cycles: 353684429 cumulative IPC: 0.282738 (Simulation time: 0 hr 17 min 27 sec) 

ChampSim completed all CPUs

Region of Interest Statistics

CPU 0 cumulative IPC: 0.282738 instructions: 100000000 cycles: 353684429
cpu0_DTLB TOTAL     ACCESS:   13661541  HIT:   13611091  MISS:      50450
cpu0_DTLB LOAD      ACCESS:    6948372  HIT:    6935753  MISS:      12619
cpu0_DTLB RFO       ACCESS:    6713169  HIT:    6675338  MISS:      37831
cpu0_DTLB PREFETCH  ACCESS:          0  HIT:          0  MISS:          0
cpu0_DTLB WRITEBACK ACCESS:          0  HIT:          0  MISS:          0
cpu0_DTLB TRANSLATION ACCESS:          0  HIT:          0  MISS:          0
cpu0_DTLB PREFETCH  REQUESTED:          0  ISSUED:          0  USEFUL:          0  USELESS:          0
cpu0_DTLB AVERAGE MISS LATENCY: 372.619 cycles
cpu0_ITLB TOTAL     ACCESS:     118794  HIT:     118793  MISS:          1
cpu0_ITLB LOAD      ACCESS:     118794  HIT:     118793  MISS:          1
cpu0_ITLB RFO       ACCESS:          0  HIT:          0  MISS:          0
cpu0_ITLB PREFETCH  ACCESS:          0  HIT:          0  MISS:          0
cpu0_ITLB WRITEBACK ACCESS:          0  HIT:          0  MISS:          0
cpu0_ITLB TRANSLATION ACCESS:          0  HIT:          0  MISS:          0
cpu0_ITLB PREFETCH  REQUESTED:          0  ISSUED:          0  USEFUL:          0  USELESS:          0
cpu0_ITLB AVERAGE MISS LATENCY: 537 cycles
cpu0_L1I TOTAL     ACCESS:         12  HIT:          6  MISS:          6
cpu0_L1I LOAD      ACCESS:         12  HIT:          6  MISS:          6
cpu0_L1I RFO       ACCESS:          0  HIT:          0  MISS:          0
cpu0_L1I PREFETCH  ACCESS:          0  HIT:          0  MISS:          0
cpu0_L1I WRITEBACK ACCESS:          0  HIT:          0  MISS:          0
cpu0_L1I TRANSLATION ACCESS:          0  HIT:          0  MISS:          0
cpu0_L1I PREFETCH  REQUESTED:          0  ISSUED:          0  USEFUL:          0  USELESS:          0
cpu0_L1I AVERAGE MISS LATENCY: 376.667 cycles
cpu0_STLB TOTAL     ACCESS:      50451  HIT:          5  MISS:      50446
cpu0_STLB LOAD      ACCESS:      12620  HIT:          0  MISS:      12620
cpu0_STLB RFO       ACCESS:      37831  HIT:          5  MISS:      37826
cpu0_STLB PREFETCH  ACCESS:          0  HIT:          0  MISS:          0
cpu0_STLB WRITEBACK ACCESS:          0  HIT:          0  MISS:          0
cpu0_STLB TRANSLATION ACCESS:          0  HIT:          0  MISS:          0
cpu0_STLB PREFETCH  REQUESTED:          0  ISSUED:          0  USEFUL:          0  USELESS:          0
cpu0_STLB AVERAGE MISS LATENCY: 363.658 cycles
cpu0_L1D TOTAL     ACCESS:   15131574  HIT:    9811048  MISS:    5320526
cpu0_L1D LOAD      ACCESS:    4358930  HIT:    3552567  MISS:     806363
cpu0_L1D RFO       ACCESS:   10722215  HIT:    6208101  MISS:    4514114
cpu0_L1D PREFETCH  ACCESS:          0  HIT:          0  MISS:          0
cpu0_L1D WRITEBACK ACCESS:          0  HIT:          0  MISS:          0
cpu0_L1D TRANSLATION ACCESS:      50429  HIT:      50380  MISS:         49
cpu0_L1D PREFETCH  REQUESTED:          0  ISSUED:          0  USEFUL:          0  USELESS:          0
cpu0_L1D AVERAGE MISS LATENCY: 483.093 cycles
cpu0_L2C TOTAL     ACCESS:    9834648  HIT:    6608171  MISS:    3226477
cpu0_L2C LOAD      ACCESS:     806369  HIT:        193  MISS:     806176
cpu0_L2C RFO       ACCESS:    4514114  HIT:    2093955  MISS:    2420159
cpu0_L2C PREFETCH  ACCESS:          0  HIT:          0  MISS:          0
cpu0_L2C WRITEBACK ACCESS:    4514116  HIT:    4514023  MISS:         93
cpu0_L2C TRANSLATION ACCESS:         49  HIT:          0  MISS:         49
cpu0_L2C PREFETCH  REQUESTED:          0  ISSUED:          0  USEFUL:          0  USELESS:          0
cpu0_L2C AVERAGE MISS LATENCY: 777.126 cycles
LLC TOTAL     ACCESS:    5646873  HIT:    1098285  MISS:    4548588
LLC LOAD      ACCESS:     806176  HIT:         56  MISS:     806120
LLC RFO       ACCESS:    2420159  HIT:     414725  MISS:    2005434
LLC PREFETCH  ACCESS:          0  HIT:          0  MISS:          0
LLC WRITEBACK ACCESS:    2420489  HIT:     683485  MISS:    1737004
LLC TRANSLATION ACCESS:         49  HIT:         19  MISS:         30
LLC PREFETCH  REQUESTED:          0  ISSUED:          0  USEFUL:          0  USELESS:          0
LLC AVERAGE MISS LATENCY: 536.348 cycles
OPTgen accesses: 55035
OPTgen hits: 1188
OPTgen hit rate: 2.15863


Insertion Distribution: 
	LOAD 0 0 12885 866835 
	RFO 129573 0 540243 1532027 
	PREF 0 0 0 0 
	WRITEBACK 0 0 0 1858083 
	TRANSLATION 0 0 37 6 
Total Prefetch Downgrades: 0
DIP stats:
h_count: 5099115(0.828145)
s_count: 1058161(0.171855)
total: 6157276
hm_count: 77907
sm_count: 75157

DRAM Statistics
 CHANNEL 0
 RQ ROW_BUFFER_HIT:      49126  ROW_BUFFER_MISS:    2762357
 DBUS AVG_CONGESTED_CYCLE:    3.99634
 WQ ROW_BUFFER_HIT:      28382  ROW_BUFFER_MISS:    2109867  FULL:          0


CPU 0 Branch Prediction Accuracy: 99.2476% MPKI: 0.09355 Average ROB Occupancy at Mispredict: 169.766
Branch type MPKI
BRANCH_DIRECT_JUMP: 2e-05
BRANCH_INDIRECT: 0
BRANCH_CONDITIONAL: 0.09349
BRANCH_DIRECT_CALL: 2e-05
BRANCH_INDIRECT_CALL: 0
BRANCH_RETURN: 2e-05

