
*** ChampSim Multicore Out-of-Order Simulator ***

Warmup Instructions: 10000000
Simulation Instructions: 100000000
Number of CPUs: 1
Off-chip DRAM Size: 4 GiB Channels: 1 Width: 64-bit Data Rate: 3200 MT/s

VirtualMemory physical capacity: 8588881920 num_ppages: 2096895
VirtualMemory page size: 4096 log2_page_size: 12

CPU 0 runs /datasets/cs240c-wi22-a00-public/data/Assignment2/soplex_205B.trace.xz
CPU 0 Bimodal branch predictor
Basic BTB sets: 1024 ways: 8 indirect buffer size: 4096 RAS size: 64
Initialize Hawkeye state
Initialize SRRIP state
Heartbeat CPU 0 instructions: 10000003 cycles: 2865171 heartbeat IPC: 3.49019 cumulative IPC: 3.49019 (Simulation time: 0 hr 0 min 23 sec) 

Warmup complete CPU 0 instructions: 10000003 cycles: 2865171 (Simulation time: 0 hr 0 min 23 sec) 

Heartbeat CPU 0 instructions: 20000004 cycles: 47392622 heartbeat IPC: 0.224581 cumulative IPC: 0.224581 (Simulation time: 0 hr 2 min 20 sec) 
Heartbeat CPU 0 instructions: 30000004 cycles: 83102872 heartbeat IPC: 0.280032 cumulative IPC: 0.249259 (Simulation time: 0 hr 3 min 22 sec) 
Heartbeat CPU 0 instructions: 40000004 cycles: 111155055 heartbeat IPC: 0.356478 cumulative IPC: 0.277034 (Simulation time: 0 hr 4 min 26 sec) 
Heartbeat CPU 0 instructions: 50000001 cycles: 143743078 heartbeat IPC: 0.306861 cumulative IPC: 0.283934 (Simulation time: 0 hr 5 min 38 sec) 
Heartbeat CPU 0 instructions: 60000000 cycles: 171513491 heartbeat IPC: 0.360095 cumulative IPC: 0.296475 (Simulation time: 0 hr 6 min 41 sec) 
Heartbeat CPU 0 instructions: 70000000 cycles: 201600342 heartbeat IPC: 0.332371 cumulative IPC: 0.301909 (Simulation time: 0 hr 7 min 54 sec) 
Heartbeat CPU 0 instructions: 80000003 cycles: 228825624 heartbeat IPC: 0.367306 cumulative IPC: 0.309789 (Simulation time: 0 hr 8 min 52 sec) 
Heartbeat CPU 0 instructions: 90000000 cycles: 260263843 heartbeat IPC: 0.318084 cumulative IPC: 0.310802 (Simulation time: 0 hr 10 min 4 sec) 
Heartbeat CPU 0 instructions: 100000002 cycles: 286786751 heartbeat IPC: 0.377033 cumulative IPC: 0.316989 (Simulation time: 0 hr 11 min 0 sec) 
Heartbeat CPU 0 instructions: 110000000 cycles: 339172691 heartbeat IPC: 0.190891 cumulative IPC: 0.297347 (Simulation time: 0 hr 12 min 49 sec) 
Finished CPU 0 instructions: 100000002 cycles: 336307521 cumulative IPC: 0.297347 (Simulation time: 0 hr 12 min 49 sec) 

ChampSim completed all CPUs

Region of Interest Statistics

CPU 0 cumulative IPC: 0.297347 instructions: 100000002 cycles: 336307521
cpu0_DTLB TOTAL     ACCESS:   22256988  HIT:   21294435  MISS:     962553
cpu0_DTLB LOAD      ACCESS:   16518425  HIT:   15777702  MISS:     740723
cpu0_DTLB RFO       ACCESS:    5738563  HIT:    5516733  MISS:     221830
cpu0_DTLB PREFETCH  ACCESS:          0  HIT:          0  MISS:          0
cpu0_DTLB WRITEBACK ACCESS:          0  HIT:          0  MISS:          0
cpu0_DTLB TRANSLATION ACCESS:          0  HIT:          0  MISS:          0
cpu0_DTLB PREFETCH  REQUESTED:          0  ISSUED:          0  USEFUL:          0  USELESS:          0
cpu0_DTLB AVERAGE MISS LATENCY: 15.7638 cycles
cpu0_ITLB TOTAL     ACCESS:    7980320  HIT:    7980303  MISS:         17
cpu0_ITLB LOAD      ACCESS:    7980320  HIT:    7980303  MISS:         17
cpu0_ITLB RFO       ACCESS:          0  HIT:          0  MISS:          0
cpu0_ITLB PREFETCH  ACCESS:          0  HIT:          0  MISS:          0
cpu0_ITLB WRITEBACK ACCESS:          0  HIT:          0  MISS:          0
cpu0_ITLB TRANSLATION ACCESS:          0  HIT:          0  MISS:          0
cpu0_ITLB PREFETCH  REQUESTED:          0  ISSUED:          0  USEFUL:          0  USELESS:          0
cpu0_ITLB AVERAGE MISS LATENCY: 467.529 cycles
cpu0_L1I TOTAL     ACCESS:     824030  HIT:     823257  MISS:        773
cpu0_L1I LOAD      ACCESS:     824030  HIT:     823257  MISS:        773
cpu0_L1I RFO       ACCESS:          0  HIT:          0  MISS:          0
cpu0_L1I PREFETCH  ACCESS:          0  HIT:          0  MISS:          0
cpu0_L1I WRITEBACK ACCESS:          0  HIT:          0  MISS:          0
cpu0_L1I TRANSLATION ACCESS:          0  HIT:          0  MISS:          0
cpu0_L1I PREFETCH  REQUESTED:          0  ISSUED:          0  USEFUL:          0  USELESS:          0
cpu0_L1I AVERAGE MISS LATENCY: 331.245 cycles
cpu0_STLB TOTAL     ACCESS:     962570  HIT:     807007  MISS:     155563
cpu0_STLB LOAD      ACCESS:     740740  HIT:     596003  MISS:     144737
cpu0_STLB RFO       ACCESS:     221830  HIT:     211004  MISS:      10826
cpu0_STLB PREFETCH  ACCESS:          0  HIT:          0  MISS:          0
cpu0_STLB WRITEBACK ACCESS:          0  HIT:          0  MISS:          0
cpu0_STLB TRANSLATION ACCESS:          0  HIT:          0  MISS:          0
cpu0_STLB PREFETCH  REQUESTED:          0  ISSUED:          0  USEFUL:          0  USELESS:          0
cpu0_STLB AVERAGE MISS LATENCY: 40.9713 cycles
cpu0_L1D TOTAL     ACCESS:   19218900  HIT:   13428313  MISS:    5790587
cpu0_L1D LOAD      ACCESS:   12663832  HIT:    7829228  MISS:    4834604
cpu0_L1D RFO       ACCESS:    6403385  HIT:    5453040  MISS:     950345
cpu0_L1D PREFETCH  ACCESS:          0  HIT:          0  MISS:          0
cpu0_L1D WRITEBACK ACCESS:          0  HIT:          0  MISS:          0
cpu0_L1D TRANSLATION ACCESS:     151683  HIT:     146045  MISS:       5638
cpu0_L1D PREFETCH  REQUESTED:          0  ISSUED:          0  USEFUL:          0  USELESS:          0
cpu0_L1D AVERAGE MISS LATENCY: 228.328 cycles
cpu0_L2C TOTAL     ACCESS:    8360907  HIT:    3854874  MISS:    4506033
cpu0_L2C LOAD      ACCESS:    4834953  HIT:    1131156  MISS:    3703797
cpu0_L2C RFO       ACCESS:     950266  HIT:     148924  MISS:     801342
cpu0_L2C PREFETCH  ACCESS:          0  HIT:          0  MISS:          0
cpu0_L2C WRITEBACK ACCESS:    2570050  HIT:    2569977  MISS:         73
cpu0_L2C TRANSLATION ACCESS:       5638  HIT:       4817  MISS:        821
cpu0_L2C PREFETCH  REQUESTED:          0  ISSUED:          0  USEFUL:          0  USELESS:          0
cpu0_L2C AVERAGE MISS LATENCY: 279.123 cycles
LLC TOTAL     ACCESS:    6406304  HIT:    3164984  MISS:    3241320
LLC LOAD      ACCESS:    3703782  HIT:    1415254  MISS:    2288528
LLC RFO       ACCESS:     801335  HIT:     303714  MISS:     497621
LLC PREFETCH  ACCESS:          0  HIT:          0  MISS:          0
LLC WRITEBACK ACCESS:    1900366  HIT:    1445517  MISS:     454849
LLC TRANSLATION ACCESS:        821  HIT:        499  MISS:        322
LLC PREFETCH  REQUESTED:          0  ISSUED:          0  USEFUL:          0  USELESS:          0
LLC AVERAGE MISS LATENCY: 358.489 cycles
OPTgen accesses: 77362
OPTgen hits: 27557
OPTgen hit rate: 35.6208


Insertion Distribution: 
	LOAD 401054 0 413039 1784093 
	RFO 80345 0 149059 312217 
	PREF 0 0 0 0 
	WRITEBACK 0 0 0 503953 
	TRANSLATION 14 0 226 134 
Total Prefetch Downgrades: 0
DIP stats:
h_count: 3526696(0.501052)
s_count: 3511893(0.498948)
total: 7038589
hm_count: 57605
sm_count: 57157

DRAM Statistics
 CHANNEL 0
 RQ ROW_BUFFER_HIT:     303529  ROW_BUFFER_MISS:    2480742
 DBUS AVG_CONGESTED_CYCLE:    3.95674
 WQ ROW_BUFFER_HIT:      47175  ROW_BUFFER_MISS:     998387  FULL:     496141


CPU 0 Branch Prediction Accuracy: 93.3985% MPKI: 13.5305 Average ROB Occupancy at Mispredict: 48.4232
Branch type MPKI
BRANCH_DIRECT_JUMP: 0.00081
BRANCH_INDIRECT: 0.00022
BRANCH_CONDITIONAL: 13.5274
BRANCH_DIRECT_CALL: 0.00058
BRANCH_INDIRECT_CALL: 0.00056
BRANCH_RETURN: 0.00094

